/*---------------------------------------------------------------------------*\
| =========                 |                                                 |
| \\      /  F ield         | OpenFOAM: The Open Source CFD Toolbox           |
|  \\    /   O peration     | Version:  v1912                                 |
|   \\  /    A nd           | Website:  www.openfoam.com                      |
|    \\/     M anipulation  |                                                 |
\*---------------------------------------------------------------------------*/
Build  : _f3950763fe-20191219 OPENFOAM=1912
Arch   : "LSB;label=32;scalar=64"
Exec   : reactingTwoPhaseEulerFoam
Date   : Jul 05 2020
Time   : 11:13:43
Host   : MSI
PID    : 3185
I/O    : uncollated
Case   : /mnt/c/Users/Felipe/felipe-v1912/reactingTutorial/closedTank_coarse
nProcs : 1
trapFpe: Floating point exception trapping enabled (FOAM_SIGFPE).
fileModificationChecking : Monitoring run-time modified files using timeStampMaster (fileModificationSkew 10)
allowSystemOperations : Allowing user-supplied system call operations

// * * * * * * * * * * * * * * * * * * * * * * * * * * * * * * * * * * * * * //
Create time

Create mesh for time = 0


PIMPLE: no residual control data found. Calculations will employ 2 corrector loops


Reading g

Reading hRef
Creating phaseSystem

Selecting twoPhaseSystem thermalPhaseChangeTwoPhaseSystem
Selecting phaseModel for gas: purePhaseModel
Selecting diameterModel for phase gas: constant
Selecting thermodynamics package 
{
    type            heRhoThermo;
    mixture         pureMixture;
    transport       const;
    thermo          eRefConst;
    equationOfState perfectGas;
    specie          specie;
    energy          sensibleInternalEnergy;
}

Calculating face flux field phi.gas
Selecting turbulence model type LES
Selecting LES turbulence model continuousGasKEqn
Selecting partitioningModel: Lavieville
Selecting LES delta type cubeRootVol
--> FOAM Warning : 
    From function void Foam::LESModels::cubeRootVolDelta::calcDelta()
    in file LES/LESdeltas/cubeRootVolDelta/cubeRootVolDelta.C at line 58
    Case is 2D, LES is not strictly applicable

LES
{
    LESModel        continuousGasKEqn;
    turbulence      on;
    printCoeffs     on;
    delta           cubeRootVol;
    cubeRootVolCoeffs
    {
    }
    Ce              1.048;
    Ck              0.094;
    alphaInversion  0.7;
}

Selecting phaseModel for liquid: purePhaseModel
Selecting diameterModel for phase liquid: constant
Selecting thermodynamics package 
{
    type            heRhoThermo;
    mixture         pureMixture;
    transport       polynomial;
    thermo          hPolynomial;
    equationOfState icoPolynomial;
    specie          specie;
    energy          sensibleInternalEnergy;
}

Calculating face flux field phi.liquid
Selecting turbulence model type LES
Selecting LES turbulence model NicenoKEqn
Selecting partitioningModel: Lavieville
Selecting nucleationSiteModel: LemmertChawla
Selecting departureDiameterModel: TolubinskiKostanchuk
Selecting departureFrequencyModel: Cole
Selecting LES delta type cubeRootVol
--> FOAM Warning : 
    From function void Foam::LESModels::cubeRootVolDelta::calcDelta()
    in file LES/LESdeltas/cubeRootVolDelta/cubeRootVolDelta.C at line 58
    Case is 2D, LES is not strictly applicable

LES
{
    LESModel        NicenoKEqn;
    turbulence      on;
    printCoeffs     on;
    delta           cubeRootVol;
    cubeRootVolCoeffs
    {
    }
    Ce              1.048;
    Ck              0.094;
    alphaInversion  0.3;
    Cp              0.094;
    Cmub            0.6;
}

No MRF models present

Selecting default blending method: linear
Selecting heatTransfer blending method: linear
Selecting massTransfer blending method: linear
Selecting surfaceTensionModel for (gas and liquid): constant
Selecting aspectRatioModel for (liquid in gas): constant
Selecting aspectRatioModel for (gas in liquid): constant
Selecting dragModel for (liquid in gas): SchillerNaumann
Selecting swarmCorrection for (liquid in gas): none
Selecting dragModel for (gas in liquid): SchillerNaumann
Selecting swarmCorrection for (gas in liquid): none
Selecting virtualMassModel for (liquid in gas): constantCoefficient
Selecting virtualMassModel for (gas in liquid): constantCoefficient
Selecting wallLubricationModel for (gas in liquid): Antal
Selecting turbulentDispersionModel for (gas in liquid): Burns
Selecting heatTransferModel for (liquid in gas): spherical
Selecting heatTransferModel for (gas in liquid): RanzMarshall
Selecting heatTransferModel for (liquid in gas): spherical
Selecting heatTransferModel for (gas in liquid): RanzMarshall
Selecting saturationModel: constant
Calculating field g.h

Reading field p_rgh

Creating finite volume options from "system/fvOptions"

Selecting finite volume options type buoyancyForce
    Source: buoyancy_gas
Selecting finite volume options type buoyancyForce
    Source: buoyancy_liquid
Courant Number mean: 0 max: 0

Starting time loop

Courant Number mean: 0 max: 0
Max Ur Courant Number = 0
deltaT = 0.0001200480192
Time = 0.000120048

PIMPLE: iteration 1
MULES: Solving for alpha.gas
MULES: Solving for alpha.gas
MULES: Solving for alpha.gas
alpha.gas volume fraction = 0.5083333333  Min(alpha1) = 0  Max(alpha1) = 1
Constructing face momentum equations
Tf.gasAndLiquid: min = 111.538, mean = 111.538, max = 111.538
iDmdt.gasAndLiquid: min = 0, mean = 0, max = 0, integral = 0
wDmdt.gasAndLiquid: min = 0, mean = 0, max = 0, integral = 0
DILUPBiCGStab:  Solving for e.gas, Initial residual = 0.001534058333, Final residual = 2.27581442e-11, No Iterations 1
DILUPBiCGStab:  Solving for e.liquid, Initial residual = 0.9998125601, Final residual = 1.338970986e-11, No Iterations 1
Tf.gasAndLiquid: min = 111.538, mean = 111.538, max = 111.5380007
iDmdt.gasAndLiquid: min = 0, mean = 0, max = 0, integral = 0
wDmdt.gasAndLiquid: min = 0, mean = 2.78026123e-06, max = 0.0002261907441, integral = 5.619184258e-10
DILUPBiCGStab:  Solving for e.gas, Initial residual = 0.9996797084, Final residual = 1.27955946e-11, No Iterations 1
DILUPBiCGStab:  Solving for e.liquid, Initial residual = 0.002909703999, Final residual = 3.896721202e-14, No Iterations 1
Selecting patchDistMethod meshWave
DICPBiCGStab:  Solving for p_rgh, Initial residual = 0.003030655106, Final residual = 0.0002993070633, No Iterations 26
DICPBiCGStab:  Solving for p_rgh, Initial residual = 0.0001375998281, Final residual = 9.208240636e-09, No Iterations 45
PIMPLE: iteration 2
MULES: Solving for alpha.gas
MULES: Solving for alpha.gas
MULES: Solving for alpha.gas
alpha.gas volume fraction = 0.5083333333  Min(alpha1) = -4.836470396e-34  Max(alpha1) = 1
Constructing face momentum equations
Tf.gasAndLiquid: min = 111.538, mean = 111.5380036, max = 111.5382936
iDmdt.gasAndLiquid: min = -1.298012772e-18, mean = 1.308945307e-10, max = 1.075429352e-08, integral = 2.645508553e-14
wDmdt.gasAndLiquid: min = 0, mean = 5.501305374e-06, max = 0.0004485162721, integral = 1.11186849e-09
DILUPBiCGStab:  Solving for e.gas, Initial residual = 0.9459703584, Final residual = 3.038942368e-09, No Iterations 1
DILUPBiCGStab:  Solving for e.liquid, Initial residual = 0.002945002734, Final residual = 4.892551348e-14, No Iterations 1
Tf.gasAndLiquid: min = 111.5378377, mean = 111.5380792, max = 111.5385999
iDmdt.gasAndLiquid: min = 0, mean = 2.619585494e-10, max = 2.071057956e-08, integral = 4.66393406e-14
wDmdt.gasAndLiquid: min = 0, mean = 8.152298697e-06, max = 0.0006651158715, integral = 1.647660587e-09
DILUPBiCGStab:  Solving for e.gas, Initial residual = 0.001451665941, Final residual = 1.523901385e-12, No Iterations 1
DILUPBiCGStab:  Solving for e.liquid, Initial residual = 0.006797701496, Final residual = 2.079867683e-11, No Iterations 1
DICPBiCGStab:  Solving for p_rgh, Initial residual = 0.0003167742284, Final residual = 1.490974595e-05, No Iterations 7
DICPBiCGStab:  Solving for p_rgh, Initial residual = 2.240834751e-05, Final residual = 6.472962495e-09, No Iterations 36
smoothSolver:  Solving for k.gas, Initial residual = 0.9999999935, Final residual = 1.406458526e-10, No Iterations 2
smoothSolver:  Solving for k.liquid, Initial residual = 1, Final residual = 2.568647234e-10, No Iterations 1
ExecutionTime = 0.36 s  ClockTime = 0 s

Courant Number mean: 3.435547202e-05 max: 9.784526937e-05
Max Ur Courant Number = 0.001416334505
deltaT = 0.0001441269148
Time = 0.000264175

PIMPLE: iteration 1
MULES: Solving for alpha.gas
MULES: Solving for alpha.gas
MULES: Solving for alpha.gas
alpha.gas volume fraction = 0.5083333334  Min(alpha1) = 0  Max(alpha1) = 1
Constructing face momentum equations
Tf.gasAndLiquid: min = 111.5377569, mean = 111.5381179, max = 111.5388941
iDmdt.gasAndLiquid: min = 0, mean = 1.409858062e-09, max = 1.189560414e-07, integral = 2.556715706e-13
wDmdt.gasAndLiquid: min = 0, mean = 1.330245089e-05, max = 0.001086683809, integral = 2.68855753e-09
DILUPBiCGStab:  Solving for e.gas, Initial residual = 0.3346371529, Final residual = 6.371224946e-10, No Iterations 1
DILUPBiCGStab:  Solving for e.liquid, Initial residual = 0.03390685974, Final residual = 4.138422683e-11, No Iterations 1
Tf.gasAndLiquid: min = 111.5375452, mean = 111.5381315, max = 111.5386923
iDmdt.gasAndLiquid: min = -1.678471361e-07, mean = 7.515162465e-10, max = 9.538408032e-08, integral = 1.366822796e-13
wDmdt.gasAndLiquid: min = 0, mean = 1.576098596e-05, max = 0.001287912721, integral = 3.185451901e-09
DILUPBiCGStab:  Solving for e.gas, Initial residual = 0.0001333695103, Final residual = 4.918844698e-13, No Iterations 1
DILUPBiCGStab:  Solving for e.liquid, Initial residual = 3.815104466e-05, Final residual = 2.106965137e-13, No Iterations 1
DICPBiCGStab:  Solving for p_rgh, Initial residual = 0.001202217001, Final residual = 0.000119400236, No Iterations 6
DICPBiCGStab:  Solving for p_rgh, Initial residual = 0.0001365779856, Final residual = 3.98366066e-09, No Iterations 44
PIMPLE: iteration 2
MULES: Solving for alpha.gas
MULES: Solving for alpha.gas
MULES: Solving for alpha.gas
alpha.gas volume fraction = 0.5083333333  Min(alpha1) = -6.180225827e-40  Max(alpha1) = 1
Constructing face momentum equations
Tf.gasAndLiquid: min = 111.5374394, mean = 111.5381403, max = 111.5387389
iDmdt.gasAndLiquid: min = -3.504829507e-07, mean = 1.413887183e-09, max = 1.840036852e-07, integral = 2.586845931e-13
wDmdt.gasAndLiquid: min = 0, mean = 1.815577708e-05, max = 0.001483910997, integral = 3.669462987e-09
DILUPBiCGStab:  Solving for e.gas, Initial residual = 0.0493667123, Final residual = 1.583457072e-10, No Iterations 1
DILUPBiCGStab:  Solving for e.liquid, Initial residual = 2.268187568e-05, Final residual = 7.779699349e-12, No Iterations 1
Tf.gasAndLiquid: min = 111.5367967, mean = 111.5381348, max = 111.5385967
iDmdt.gasAndLiquid: min = -1.356299184e-06, mean = -2.222344341e-09, max = 4.712084856e-08, integral = -3.421962041e-13
wDmdt.gasAndLiquid: min = 0, mean = 2.04902112e-05, max = 0.001674957545, integral = 4.141275323e-09
DILUPBiCGStab:  Solving for e.gas, Initial residual = 7.628825207e-05, Final residual = 1.321450732e-13, No Iterations 1
DILUPBiCGStab:  Solving for e.liquid, Initial residual = 1.370736957e-05, Final residual = 2.626701049e-13, No Iterations 1
DICPBiCGStab:  Solving for p_rgh, Initial residual = 4.498805603e-05, Final residual = 3.768865259e-06, No Iterations 8
DICPBiCGStab:  Solving for p_rgh, Initial residual = 4.053673757e-06, Final residual = 6.943116464e-09, No Iterations 27
smoothSolver:  Solving for k.gas, Initial residual = 0.8140258833, Final residual = 2.345646142e-10, No Iterations 2
smoothSolver:  Solving for k.liquid, Initial residual = 0.5928828118, Final residual = 1.209979008e-10, No Iterations 1
ExecutionTime = 0.63 s  ClockTime = 1 s

Courant Number mean: 3.679619713e-05 max: 0.0001150776356
Max Ur Courant Number = 0.001950340092
deltaT = 0.0001728523831
Time = 0.000437027

PIMPLE: iteration 1
MULES: Solving for alpha.gas
MULES: Solving for alpha.gas
MULES: Solving for alpha.gas
alpha.gas volume fraction = 0.5083333333  Min(alpha1) = -2.182905669e-39  Max(alpha1) = 1
Constructing face momentum equations
Tf.gasAndLiquid: min = 111.5368135, mean = 111.5381352, max = 111.5386065
iDmdt.gasAndLiquid: min = -3.32722063e-06, mean = -6.626129078e-09, max = 2.02155675e-08, integral = -1.068079421e-12
wDmdt.gasAndLiquid: min = 0, mean = 2.501939216e-05, max = 0.002045591471, integral = 5.056667808e-09
DILUPBiCGStab:  Solving for e.gas, Initial residual = 0.2234176501, Final residual = 4.181524598e-10, No Iterations 1
DILUPBiCGStab:  Solving for e.liquid, Initial residual = 0.002811435179, Final residual = 7.84690565e-12, No Iterations 1
Tf.gasAndLiquid: min = 111.5371499, mean = 111.5381369, max = 111.5386531
iDmdt.gasAndLiquid: min = -6.390284693e-07, mean = -3.055990536e-09, max = 1.57505251e-07, integral = -7.394069006e-13
wDmdt.gasAndLiquid: min = 0, mean = 2.718524094e-05, max = 0.002222807644, integral = 5.49440737e-09
DILUPBiCGStab:  Solving for e.gas, Initial residual = 3.880994168e-05, Final residual = 4.077304732e-13, No Iterations 1
DILUPBiCGStab:  Solving for e.liquid, Initial residual = 2.556861896e-05, Final residual = 7.871236437e-13, No Iterations 1
DICPBiCGStab:  Solving for p_rgh, Initial residual = 0.0008317390045, Final residual = 5.948738747e-05, No Iterations 6
DICPBiCGStab:  Solving for p_rgh, Initial residual = 8.063087814e-05, Final residual = 8.470231365e-09, No Iterations 47
PIMPLE: iteration 2
MULES: Solving for alpha.gas
MULES: Solving for alpha.gas
MULES: Solving for alpha.gas
alpha.gas volume fraction = 0.5083333333  Min(alpha1) = -3.858724315e-38  Max(alpha1) = 1
Constructing face momentum equations
Tf.gasAndLiquid: min = 111.5371346, mean = 111.538137, max = 111.5387146
iDmdt.gasAndLiquid: min = -6.709467739e-07, mean = -3.499092998e-09, max = 2.270476545e-07, integral = -8.846398312e-13
wDmdt.gasAndLiquid: min = 0, mean = 2.929509782e-05, max = 0.002395430168, integral = 5.920830415e-09
DILUPBiCGStab:  Solving for e.gas, Initial residual = 0.1375132418, Final residual = 2.520135302e-10, No Iterations 1
DILUPBiCGStab:  Solving for e.liquid, Initial residual = 1.97492139e-05, Final residual = 7.961601598e-12, No Iterations 1
Tf.gasAndLiquid: min = 111.536625, mean = 111.538129, max = 111.5386623
iDmdt.gasAndLiquid: min = -2.676474088e-06, mean = -1.206895957e-08, max = 2.666365966e-13, integral = -2.31621222e-12
wDmdt.gasAndLiquid: min = 0, mean = 3.135279697e-05, max = 0.00256377525, integral = 6.336711863e-09
DILUPBiCGStab:  Solving for e.gas, Initial residual = 5.442827254e-05, Final residual = 2.451532894e-13, No Iterations 1
DILUPBiCGStab:  Solving for e.liquid, Initial residual = 1.557870613e-05, Final residual = 2.957588562e-13, No Iterations 1
DICPBiCGStab:  Solving for p_rgh, Initial residual = 0.0001399492957, Final residual = 2.716900445e-06, No Iterations 8
DICPBiCGStab:  Solving for p_rgh, Initial residual = 3.449329427e-06, Final residual = 7.982997044e-09, No Iterations 39
smoothSolver:  Solving for k.gas, Initial residual = 0.01968875504, Final residual = 9.921108034e-12, No Iterations 2
smoothSolver:  Solving for k.liquid, Initial residual = 0.4360851862, Final residual = 1.362978553e-10, No Iterations 1
ExecutionTime = 0.9 s  ClockTime = 1 s

Courant Number mean: 4.529044421e-06 max: 1.619168822e-05
Max Ur Courant Number = 0.002366159385
deltaT = 0.0002074228598
Time = 0.00064445

PIMPLE: iteration 1
MULES: Solving for alpha.gas
MULES: Solving for alpha.gas
MULES: Solving for alpha.gas
alpha.gas volume fraction = 0.5083333334  Min(alpha1) = 0  Max(alpha1) = 1
Constructing face momentum equations
Tf.gasAndLiquid: min = 111.5364942, mean = 111.5381277, max = 111.5386361
iDmdt.gasAndLiquid: min = -5.204820199e-06, mean = -2.551302175e-08, max = 7.085948971e-13, integral = -4.897550072e-12
wDmdt.gasAndLiquid: min = 0, mean = 3.534724183e-05, max = 0.002890545394, integral = 7.144028866e-09
DILUPBiCGStab:  Solving for e.gas, Initial residual = 0.05451669275, Final residual = 1.475492443e-10, No Iterations 1
DILUPBiCGStab:  Solving for e.liquid, Initial residual = 0.003801941582, Final residual = 1.165524141e-11, No Iterations 1
Tf.gasAndLiquid: min = 111.5362574, mean = 111.5381278, max = 111.5386443
iDmdt.gasAndLiquid: min = -2.30124853e-06, mean = -2.104807295e-08, max = 4.042886958e-07, integral = -4.570741979e-12
wDmdt.gasAndLiquid: min = 0, mean = 3.72603074e-05, max = 0.00304702941, integral = 7.530678432e-09
DILUPBiCGStab:  Solving for e.gas, Initial residual = 1.429580762e-05, Final residual = 1.601431881e-13, No Iterations 1
DILUPBiCGStab:  Solving for e.liquid, Initial residual = 2.560802898e-05, Final residual = 7.289342422e-13, No Iterations 1
DICPBiCGStab:  Solving for p_rgh, Initial residual = 0.0003291196553, Final residual = 2.630897204e-05, No Iterations 7
DICPBiCGStab:  Solving for p_rgh, Initial residual = 5.921179613e-05, Final residual = 2.474243912e-09, No Iterations 45
PIMPLE: iteration 2
MULES: Solving for alpha.gas
MULES: Solving for alpha.gas
MULES: Solving for alpha.gas
alpha.gas volume fraction = 0.5083333334  Min(alpha1) = -3.81534684e-54  Max(alpha1) = 1
Constructing face momentum equations
Tf.gasAndLiquid: min = 111.5362454, mean = 111.5381277, max = 111.5386484
iDmdt.gasAndLiquid: min = -2.53770245e-06, mean = -2.282871193e-08, max = 4.967066382e-07, integral = -5.001590859e-12
wDmdt.gasAndLiquid: min = 0, mean = 3.912418487e-05, max = 0.003199479209, integral = 7.907386593e-09
DILUPBiCGStab:  Solving for e.gas, Initial residual = 0.1353929114, Final residual = 3.815414215e-10, No Iterations 1
DILUPBiCGStab:  Solving for e.liquid, Initial residual = 2.248709561e-05, Final residual = 1.074378922e-11, No Iterations 1
Tf.gasAndLiquid: min = 111.5358134, mean = 111.5381211, max = 111.5386168
iDmdt.gasAndLiquid: min = -3.714930134e-06, mean = -3.702658917e-08, max = 7.514887518e-09, integral = -7.418879934e-12
wDmdt.gasAndLiquid: min = 0, mean = 4.094274429e-05, max = 0.003348213739, integral = 8.274935525e-09
DILUPBiCGStab:  Solving for e.gas, Initial residual = 7.256407139e-05, Final residual = 6.436743841e-13, No Iterations 1
DILUPBiCGStab:  Solving for e.liquid, Initial residual = 2.142031731e-05, Final residual = 3.607195614e-13, No Iterations 1
DICPBiCGStab:  Solving for p_rgh, Initial residual = 0.000118994016, Final residual = 4.56991546e-06, No Iterations 8
DICPBiCGStab:  Solving for p_rgh, Initial residual = 5.839795957e-06, Final residual = 8.077546611e-09, No Iterations 41
smoothSolver:  Solving for k.gas, Initial residual = 0.01002553185, Final residual = 7.927596776e-12, No Iterations 2
smoothSolver:  Solving for k.liquid, Initial residual = 0.3713248932, Final residual = 1.87936639e-10, No Iterations 1
ExecutionTime = 1.14 s  ClockTime = 1 s

Courant Number mean: 2.575834625e-05 max: 7.801337333e-05
Max Ur Courant Number = 0.002841999625
deltaT = 0.0002490114031
Time = 0.000893462

PIMPLE: iteration 1
MULES: Solving for alpha.gas
MULES: Solving for alpha.gas
MULES: Solving for alpha.gas
alpha.gas volume fraction = 0.5083333334  Min(alpha1) = -5.43448189e-54  Max(alpha1) = 1
Constructing face momentum equations
Tf.gasAndLiquid: min = 111.5357131, mean = 111.53812, max = 111.5386168
iDmdt.gasAndLiquid: min = -6.378940624e-06, mean = -6.630783057e-08, max = 1.815179275e-12, integral = -1.326445803e-11
wDmdt.gasAndLiquid: min = 0, mean = 4.447465176e-05, max = 0.003637055648, integral = 8.988769125e-09
DILUPBiCGStab:  Solving for e.gas, Initial residual = 0.1867202699, Final residual = 7.594299891e-10, No Iterations 1
DILUPBiCGStab:  Solving for e.liquid, Initial residual = 0.005783180458, Final residual = 1.767410624e-11, No Iterations 1
Tf.gasAndLiquid: min = 111.5355127, mean = 111.5381196, max = 111.5386169
iDmdt.gasAndLiquid: min = -6.132559902e-06, mean = -6.491759156e-08, max = 4.061739564e-07, integral = -1.343718092e-11
wDmdt.gasAndLiquid: min = 0, mean = 4.616843364e-05, max = 0.00377556082, integral = 9.331099278e-09
DILUPBiCGStab:  Solving for e.gas, Initial residual = 6.623845401e-05, Final residual = 1.452750691e-12, No Iterations 1
DILUPBiCGStab:  Solving for e.liquid, Initial residual = 3.51740953e-05, Final residual = 6.163729864e-13, No Iterations 1
DICPBiCGStab:  Solving for p_rgh, Initial residual = 0.0008345092747, Final residual = 7.593784963e-05, No Iterations 5
DICPBiCGStab:  Solving for p_rgh, Initial residual = 0.0001175796299, Final residual = 8.952420966e-09, No Iterations 51
PIMPLE: iteration 2
MULES: Solving for alpha.gas
MULES: Solving for alpha.gas
MULES: Solving for alpha.gas
alpha.gas volume fraction = 0.5083333334  Min(alpha1) = -8.017172778e-37  Max(alpha1) = 1
Constructing face momentum equations
Tf.gasAndLiquid: min = 111.5355055, mean = 111.5381199, max = 111.5386169
iDmdt.gasAndLiquid: min = -6.48731176e-06, mean = -6.84224472e-08, max = 4.643725496e-07, integral = -1.41923903e-11
wDmdt.gasAndLiquid: min = 0, mean = 4.781897608e-05, max = 0.003910520722, integral = 9.664690307e-09
DILUPBiCGStab:  Solving for e.gas, Initial residual = 0.08884139462, Final residual = 3.9037771e-10, No Iterations 1
DILUPBiCGStab:  Solving for e.liquid, Initial residual = 3.399658717e-05, Final residual = 1.767385679e-11, No Iterations 1
Tf.gasAndLiquid: min = 111.5351436, mean = 111.5381147, max = 111.5386169
iDmdt.gasAndLiquid: min = -7.471144387e-06, mean = -8.534318246e-08, max = 1.592301376e-07, integral = -1.730336367e-11
wDmdt.gasAndLiquid: min = 0, mean = 4.942996892e-05, max = 0.00404223925, integral = 9.99028797e-09
DILUPBiCGStab:  Solving for e.gas, Initial residual = 6.510285319e-05, Final residual = 1.771210207e-13, No Iterations 1
DILUPBiCGStab:  Solving for e.liquid, Initial residual = 3.158146175e-05, Final residual = 3.282955789e-13, No Iterations 1
DICPBiCGStab:  Solving for p_rgh, Initial residual = 6.094826116e-05, Final residual = 5.571561581e-06, No Iterations 6
DICPBiCGStab:  Solving for p_rgh, Initial residual = 7.739535061e-06, Final residual = 8.239134006e-09, No Iterations 45
smoothSolver:  Solving for k.gas, Initial residual = 0.007134307924, Final residual = 8.575546003e-12, No Iterations 2
smoothSolver:  Solving for k.liquid, Initial residual = 0.3714471628, Final residual = 3.250223369e-10, No Iterations 1
ExecutionTime = 1.4 s  ClockTime = 1 s

Courant Number mean: 1.7924125e-05 max: 5.33676855e-05
Max Ur Courant Number = 0.003411927716
deltaT = 0.0002985136699
Time = 0.00119198

PIMPLE: iteration 1
MULES: Solving for alpha.gas
MULES: Solving for alpha.gas
MULES: Solving for alpha.gas
alpha.gas volume fraction = 0.5083333335  Min(alpha1) = -6.848467226e-37  Max(alpha1) = 1
Constructing face momentum equations
Tf.gasAndLiquid: min = 111.535076, mean = 111.5381136, max = 111.5386169
iDmdt.gasAndLiquid: min = -1.205693413e-05, mean = -1.38361032e-07, max = 2.327713046e-07, integral = -2.803346967e-11
wDmdt.gasAndLiquid: min = 0, mean = 5.256007658e-05, max = 0.004298143578, integral = 1.062291384e-08
DILUPBiCGStab:  Solving for e.gas, Initial residual = 0.1709597011, Final residual = 9.341453347e-10, No Iterations 1
DILUPBiCGStab:  Solving for e.liquid, Initial residual = 0.009449175535, Final residual = 3.135965887e-11, No Iterations 1
Tf.gasAndLiquid: min = 111.5349161, mean = 111.5381131, max = 111.5386169
iDmdt.gasAndLiquid: min = -1.273338127e-05, mean = -1.366839857e-07, max = 9.321792779e-07, integral = -2.830985154e-11
wDmdt.gasAndLiquid: min = 0, mean = 5.406289827e-05, max = 0.004420996633, integral = 1.092664904e-08
DILUPBiCGStab:  Solving for e.gas, Initial residual = 5.560331099e-05, Final residual = 1.769586628e-12, No Iterations 1
DILUPBiCGStab:  Solving for e.liquid, Initial residual = 4.928299298e-05, Final residual = 9.208656787e-13, No Iterations 1
DICPBiCGStab:  Solving for p_rgh, Initial residual = 0.000239463997, Final residual = 2.234722607e-05, No Iterations 6
DICPBiCGStab:  Solving for p_rgh, Initial residual = 7.305073964e-05, Final residual = 4.923885755e-09, No Iterations 49
PIMPLE: iteration 2
MULES: Solving for alpha.gas
MULES: Solving for alpha.gas
MULES: Solving for alpha.gas
alpha.gas volume fraction = 0.5083333335  Min(alpha1) = -1.345600231e-60  Max(alpha1) = 1
Constructing face momentum equations
Tf.gasAndLiquid: min = 111.5349175, mean = 111.5381134, max = 111.5386169
iDmdt.gasAndLiquid: min = -1.318639864e-05, mean = -1.411233089e-07, max = 1.038719483e-06, integral = -2.927485531e-11
wDmdt.gasAndLiquid: min = 0, mean = 5.55276725e-05, max = 0.004540731022, integral = 1.122269446e-08
DILUPBiCGStab:  Solving for e.gas, Initial residual = 0.1920131562, Final residual = 1.121785407e-09, No Iterations 1
DILUPBiCGStab:  Solving for e.liquid, Initial residual = 4.912840943e-05, Final residual = 3.057069167e-11, No Iterations 1
Tf.gasAndLiquid: min = 111.5345728, mean = 111.538109, max = 111.538617
iDmdt.gasAndLiquid: min = -1.455957174e-05, mean = -1.609384244e-07, max = 7.773104223e-07, integral = -3.313862637e-11
wDmdt.gasAndLiquid: min = 0, mean = 5.695780402e-05, max = 0.004657626982, integral = 1.151173826e-08
DILUPBiCGStab:  Solving for e.gas, Initial residual = 8.861034712e-05, Final residual = 1.543908391e-12, No Iterations 1
DILUPBiCGStab:  Solving for e.liquid, Initial residual = 4.866694809e-05, Final residual = 2.901780186e-13, No Iterations 1
DICPBiCGStab:  Solving for p_rgh, Initial residual = 0.0001020363975, Final residual = 8.783922074e-06, No Iterations 6
DICPBiCGStab:  Solving for p_rgh, Initial residual = 1.149602835e-05, Final residual = 8.585737587e-09, No Iterations 33
smoothSolver:  Solving for k.gas, Initial residual = 0.005859665063, Final residual = 1.051732887e-11, No Iterations 2
smoothSolver:  Solving for k.liquid, Initial residual = 0.4890958921, Final residual = 7.728601098e-10, No Iterations 1
ExecutionTime = 1.64 s  ClockTime = 2 s

Courant Number mean: 5.809179187e-06 max: 1.62366268e-05
Max Ur Courant Number = 0.00409007691
deltaT = 0.0003580000897
Time = 0.00154998

PIMPLE: iteration 1
MULES: Solving for alpha.gas
MULES: Solving for alpha.gas
MULES: Solving for alpha.gas
alpha.gas volume fraction = 0.5083333336  Min(alpha1) = -2.368908065e-44  Max(alpha1) = 1
Constructing face momentum equations
Tf.gasAndLiquid: min = 111.5345136, mean = 111.5381082, max = 111.5386171
iDmdt.gasAndLiquid: min = -2.206726115e-05, mean = -2.447889735e-07, max = 1.140167226e-06, integral = -5.036938079e-11
wDmdt.gasAndLiquid: min = 0, mean = 5.973755616e-05, max = 0.004884818679, integral = 1.207355379e-08
DILUPBiCGStab:  Solving for e.gas, Initial residual = 0.04081634153, Final residual = 8.759961462e-10, No Iterations 1
DILUPBiCGStab:  Solving for e.liquid, Initial residual = 0.0145946933, Final residual = 5.38237476e-11, No Iterations 1
Tf.gasAndLiquid: min = 111.5343436, mean = 111.5381077, max = 111.5386171
iDmdt.gasAndLiquid: min = -2.292358496e-05, mean = -2.35604751e-07, max = 6.833103087e-06, integral = -4.988123022e-11
wDmdt.gasAndLiquid: min = 0, mean = 6.107351216e-05, max = 0.00499399802, integral = 1.234356378e-08
DILUPBiCGStab:  Solving for e.gas, Initial residual = 2.346504668e-05, Final residual = 1.11683568e-12, No Iterations 1
DILUPBiCGStab:  Solving for e.liquid, Initial residual = 6.494111845e-05, Final residual = 1.878869806e-12, No Iterations 1
DICPBiCGStab:  Solving for p_rgh, Initial residual = 0.0003970280583, Final residual = 2.706523042e-05, No Iterations 7
DICPBiCGStab:  Solving for p_rgh, Initial residual = 8.388330987e-05, Final residual = 6.194787971e-09, No Iterations 54
PIMPLE: iteration 2
MULES: Solving for alpha.gas
MULES: Solving for alpha.gas
MULES: Solving for alpha.gas
alpha.gas volume fraction = 0.5083333336  Min(alpha1) = -2.372167975e-44  Max(alpha1) = 1
Constructing face momentum equations
Tf.gasAndLiquid: min = 111.5343384, mean = 111.5381078, max = 111.5386171
iDmdt.gasAndLiquid: min = -2.345539765e-05, mean = -2.398445885e-07, max = 7.364033161e-06, integral = -5.090126247e-11
wDmdt.gasAndLiquid: min = 0, mean = 6.237594049e-05, max = 0.005100429933, integral = 1.260679749e-08
DILUPBiCGStab:  Solving for e.gas, Initial residual = 0.005091777143, Final residual = 8.891259106e-11, No Iterations 1
DILUPBiCGStab:  Solving for e.liquid, Initial residual = 6.008634665e-05, Final residual = 4.574758014e-11, No Iterations 1
Tf.gasAndLiquid: min = 111.5340318, mean = 111.5381042, max = 111.5386173
iDmdt.gasAndLiquid: min = -2.525194873e-05, mean = -2.70667931e-07, max = 3.980399912e-06, integral = -5.651891315e-11
wDmdt.gasAndLiquid: min = 0, mean = 6.364792923e-05, max = 0.005204368438, integral = 1.286387905e-08
DILUPBiCGStab:  Solving for e.gas, Initial residual = 6.213624318e-05, Final residual = 4.881276882e-13, No Iterations 1
DILUPBiCGStab:  Solving for e.liquid, Initial residual = 5.671720359e-05, Final residual = 6.994367748e-13, No Iterations 1
DICPBiCGStab:  Solving for p_rgh, Initial residual = 1.974113457e-05, Final residual = 1.965207491e-06, No Iterations 7
DICPBiCGStab:  Solving for p_rgh, Initial residual = 5.045270165e-06, Final residual = 8.713947246e-09, No Iterations 32
smoothSolver:  Solving for k.gas, Initial residual = 0.005176077777, Final residual = 1.373328049e-11, No Iterations 2
smoothSolver:  Solving for k.liquid, Initial residual = 0.8960986416, Final residual = 2.597074525e-09, No Iterations 1
ExecutionTime = 1.87 s  ClockTime = 2 s

Courant Number mean: 7.805690434e-06 max: 2.181673821e-05
Max Ur Courant Number = 0.004904994921
deltaT = 0.0004299127714
Time = 0.00197989

PIMPLE: iteration 1
MULES: Solving for alpha.gas
MULES: Solving for alpha.gas
MULES: Solving for alpha.gas
alpha.gas volume fraction = 0.5083333337  Min(alpha1) = -8.813251761e-44  Max(alpha1) = 1
Constructing face momentum equations
Tf.gasAndLiquid: min = 111.5340153, mean = 111.5381039, max = 111.5386174
iDmdt.gasAndLiquid: min = -3.661604726e-05, mean = -3.938643423e-07, max = 5.576043897e-06, integral = -8.216471838e-11
wDmdt.gasAndLiquid: min = 0, mean = 6.612113853e-05, max = 0.00540644399, integral = 1.336373923e-08
DILUPBiCGStab:  Solving for e.gas, Initial residual = 0.05674189203, Final residual = 1.589136476e-09, No Iterations 1
DILUPBiCGStab:  Solving for e.liquid, Initial residual = 0.02080771828, Final residual = 8.113051108e-11, No Iterations 1
Tf.gasAndLiquid: min = 111.5338743, mean = 111.5381037, max = 111.5386174
iDmdt.gasAndLiquid: min = -3.760346204e-05, mean = -3.794703942e-07, max = 1.81358154e-05, integral = -8.111532314e-11
wDmdt.gasAndLiquid: min = 0, mean = 6.731082549e-05, max = 0.005503640039, integral = 1.360418679e-08
DILUPBiCGStab:  Solving for e.gas, Initial residual = 2.578903272e-05, Final residual = 1.795900593e-12, No Iterations 1
DILUPBiCGStab:  Solving for e.liquid, Initial residual = 8.218636878e-05, Final residual = 2.724463672e-12, No Iterations 1
DICPBiCGStab:  Solving for p_rgh, Initial residual = 0.000203606808, Final residual = 1.010705003e-05, No Iterations 11
DICPBiCGStab:  Solving for p_rgh, Initial residual = 6.854540616e-05, Final residual = 7.246768287e-09, No Iterations 53
PIMPLE: iteration 2
MULES: Solving for alpha.gas
MULES: Solving for alpha.gas
MULES: Solving for alpha.gas
alpha.gas volume fraction = 0.5083333337  Min(alpha1) = -1.352661531e-51  Max(alpha1) = 1
Constructing face momentum equations
Tf.gasAndLiquid: min = 111.533875, mean = 111.5381041, max = 111.5386174
iDmdt.gasAndLiquid: min = -3.816761184e-05, mean = -3.831247348e-07, max = 1.904915792e-05, integral = -8.209496549e-11
wDmdt.gasAndLiquid: min = 0, mean = 6.847092058e-05, max = 0.005598411814, integral = 1.383865354e-08
DILUPBiCGStab:  Solving for e.gas, Initial residual = 0.05533197251, Final residual = 6.602172524e-10, No Iterations 1
DILUPBiCGStab:  Solving for e.liquid, Initial residual = 8.176150528e-05, Final residual = 7.422114604e-11, No Iterations 1
Tf.gasAndLiquid: min = 111.533626, mean = 111.5381012, max = 111.5386176
iDmdt.gasAndLiquid: min = -4.039520093e-05, mean = -4.247325034e-07, max = 1.454451151e-05, integral = -8.944886729e-11
wDmdt.gasAndLiquid: min = 0, mean = 6.96041973e-05, max = 0.005690987324, integral = 1.406770003e-08
DILUPBiCGStab:  Solving for e.gas, Initial residual = 6.923050911e-05, Final residual = 1.641827048e-12, No Iterations 1
DILUPBiCGStab:  Solving for e.liquid, Initial residual = 8.137732846e-05, Final residual = 1.341076724e-12, No Iterations 1
DICPBiCGStab:  Solving for p_rgh, Initial residual = 4.01485588e-05, Final residual = 1.594230818e-06, No Iterations 9
DICPBiCGStab:  Solving for p_rgh, Initial residual = 4.536561309e-06, Final residual = 9.757821708e-09, No Iterations 53
smoothSolver:  Solving for k.gas, Initial residual = 0.004771254998, Final residual = 1.860343671e-11, No Iterations 2
smoothSolver:  Solving for k.liquid, Initial residual = 0.375073707, Final residual = 1.969176885e-09, No Iterations 1
ExecutionTime = 2.12 s  ClockTime = 2 s

Courant Number mean: 3.240230486e-06 max: 8.821828368e-06
Max Ur Courant Number = 0.0058901567
deltaT = 0.0005158953257
Time = 0.00249578

PIMPLE: iteration 1
MULES: Solving for alpha.gas
MULES: Solving for alpha.gas
MULES: Solving for alpha.gas
alpha.gas volume fraction = 0.5083333339  Min(alpha1) = -5.633582675e-51  Max(alpha1) = 1
Constructing face momentum equations
Tf.gasAndLiquid: min = 111.5336579, mean = 111.5381015, max = 111.5386176
iDmdt.gasAndLiquid: min = -5.664142798e-05, mean = -5.973670336e-07, max = 2.003619669e-05, integral = -1.256898797e-10
wDmdt.gasAndLiquid: min = 0, mean = 7.180837875e-05, max = 0.005871024796, integral = 1.4513187e-08
DILUPBiCGStab:  Solving for e.gas, Initial residual = 0.009141357488, Final residual = 1.175740637e-09, No Iterations 1
DILUPBiCGStab:  Solving for e.liquid, Initial residual = 0.03487188662, Final residual = 1.465030951e-10, No Iterations 1
Tf.gasAndLiquid: min = 111.5335501, mean = 111.5381019, max = 111.5386177
iDmdt.gasAndLiquid: min = -5.75903338e-05, mean = -5.801162307e-07, max = 3.439166373e-05, integral = -1.241622935e-10
wDmdt.gasAndLiquid: min = 0, mean = 7.286949032e-05, max = 0.005957689046, integral = 1.47276482e-08
DILUPBiCGStab:  Solving for e.gas, Initial residual = 2.57666041e-05, Final residual = 1.188711115e-12, No Iterations 1
DILUPBiCGStab:  Solving for e.liquid, Initial residual = 0.0001294165006, Final residual = 4.404834152e-12, No Iterations 1
DICPBiCGStab:  Solving for p_rgh, Initial residual = 0.00017962383, Final residual = 1.594928237e-05, No Iterations 9
DICPBiCGStab:  Solving for p_rgh, Initial residual = 6.853872054e-05, Final residual = 2.674091042e-09, No Iterations 64
PIMPLE: iteration 2
MULES: Solving for alpha.gas
MULES: Solving for alpha.gas
MULES: Solving for alpha.gas
alpha.gas volume fraction = 0.5083333339  Min(alpha1) = -4.115763045e-43  Max(alpha1) = 1
Constructing face momentum equations
Tf.gasAndLiquid: min = 111.5335593, mean = 111.5381026, max = 111.5386177
iDmdt.gasAndLiquid: min = -5.807709859e-05, mean = -5.822364853e-07, max = 3.556520302e-05, integral = -1.248762013e-10
wDmdt.gasAndLiquid: min = 0, mean = 7.390444623e-05, max = 0.006042211058, integral = 1.493682307e-08
DILUPBiCGStab:  Solving for e.gas, Initial residual = 0.006057040105, Final residual = 1.531590768e-10, No Iterations 1
DILUPBiCGStab:  Solving for e.liquid, Initial residual = 0.000191589638, Final residual = 2.077092202e-10, No Iterations 1
Tf.gasAndLiquid: min = 111.5333678, mean = 111.5381004, max = 111.5386178
iDmdt.gasAndLiquid: min = -6.069267006e-05, mean = -6.253334351e-07, max = 3.281090009e-05, integral = -1.328081684e-10
wDmdt.gasAndLiquid: min = 0, mean = 7.4915719e-05, max = 0.006124793976, integral = 1.514121135e-08
DILUPBiCGStab:  Solving for e.gas, Initial residual = 5.526820306e-05, Final residual = 7.025657741e-13, No Iterations 1
DILUPBiCGStab:  Solving for e.liquid, Initial residual = 0.0002049942902, Final residual = 2.635303229e-12, No Iterations 1
DICPBiCGStab:  Solving for p_rgh, Initial residual = 1.113067582e-05, Final residual = 1.049706741e-06, No Iterations 9
DICPBiCGStab:  Solving for p_rgh, Initial residual = 3.785487947e-06, Final residual = 8.551012802e-09, No Iterations 49
smoothSolver:  Solving for k.gas, Initial residual = 0.004504983768, Final residual = 2.561026122e-11, No Iterations 2
smoothSolver:  Solving for k.liquid, Initial residual = 0.1462502058, Final residual = 1.340601922e-09, No Iterations 1
ExecutionTime = 2.38 s  ClockTime = 2 s

Courant Number mean: 5.075747804e-06 max: 1.178481755e-05
Max Ur Courant Number = 0.007068082513
deltaT = 0.0006171152947
Time = 0.0031129

PIMPLE: iteration 1
MULES: Solving for alpha.gas
MULES: Solving for alpha.gas
MULES: Solving for alpha.gas
alpha.gas volume fraction = 0.5083333341  Min(alpha1) = -2.389108337e-43  Max(alpha1) = 1
Constructing face momentum equations
Tf.gasAndLiquid: min = 111.5334539, mean = 111.5381012, max = 111.5386178
iDmdt.gasAndLiquid: min = -8.282408328e-05, mean = -8.55413316e-07, max = 4.436892272e-05, integral = -1.815319655e-10
wDmdt.gasAndLiquid: min = 0, mean = 7.68831661e-05, max = 0.006285441792, integral = 1.553885196e-08
DILUPBiCGStab:  Solving for e.gas, Initial residual = 0.01750099807, Final residual = 3.181311101e-09, No Iterations 1
DILUPBiCGStab:  Solving for e.liquid, Initial residual = 0.1012782384, Final residual = 4.433350843e-10, No Iterations 1
Tf.gasAndLiquid: min = 111.5333788, mean = 111.5381022, max = 111.5386179
iDmdt.gasAndLiquid: min = -8.347890548e-05, mean = -8.266819581e-07, max = 6.226713419e-05, integral = -1.781912767e-10
wDmdt.gasAndLiquid: min = 0, mean = 7.783097752e-05, max = 0.006362826782, integral = 1.573041407e-08
DILUPBiCGStab:  Solving for e.gas, Initial residual = 4.749907014e-05, Final residual = 2.214772287e-12, No Iterations 1
DILUPBiCGStab:  Solving for e.liquid, Initial residual = 0.0001229468362, Final residual = 4.794031865e-12, No Iterations 1
DICPBiCGStab:  Solving for p_rgh, Initial residual = 0.0001124017218, Final residual = 6.646628121e-06, No Iterations 28
DICPBiCGStab:  Solving for p_rgh, Initial residual = 4.964502655e-05, Final residual = 9.812966459e-09, No Iterations 54
PIMPLE: iteration 2
MULES: Solving for alpha.gas
MULES: Solving for alpha.gas
MULES: Solving for alpha.gas
alpha.gas volume fraction = 0.5083333341  Min(alpha1) = -3.048494015e-35  Max(alpha1) = 1
Constructing face momentum equations
Tf.gasAndLiquid: min = 111.5333964, mean = 111.5381031, max = 111.5386179
iDmdt.gasAndLiquid: min = -8.37355476e-05, mean = -8.251241826e-07, max = 6.364443315e-05, integral = -1.7823379e-10
wDmdt.gasAndLiquid: min = 0, mean = 7.875563928e-05, max = 0.006438316168, integral = 1.59172974e-08
DILUPBiCGStab:  Solving for e.gas, Initial residual = 0.01339617212, Final residual = 4.526572335e-10, No Iterations 1
DILUPBiCGStab:  Solving for e.liquid, Initial residual = 7.648861975e-05, Final residual = 1.009335194e-10, No Iterations 1
Tf.gasAndLiquid: min = 111.5332608, mean = 111.5381014, max = 111.538618
iDmdt.gasAndLiquid: min = -8.665302243e-05, mean = -8.701546242e-07, max = 6.26423873e-05, integral = -1.86705381e-10
wDmdt.gasAndLiquid: min = 0, mean = 7.965934374e-05, max = 0.006512089967, integral = 1.609994505e-08
DILUPBiCGStab:  Solving for e.gas, Initial residual = 4.79659752e-05, Final residual = 1.056043517e-12, No Iterations 1
DILUPBiCGStab:  Solving for e.liquid, Initial residual = 9.159865362e-05, Final residual = 1.024036495e-12, No Iterations 1
DICPBiCGStab:  Solving for p_rgh, Initial residual = 8.724041468e-06, Final residual = 7.731595168e-07, No Iterations 8
DICPBiCGStab:  Solving for p_rgh, Initial residual = 2.705916204e-06, Final residual = 9.153671225e-09, No Iterations 60
smoothSolver:  Solving for k.gas, Initial residual = 0.004299647076, Final residual = 3.522390407e-11, No Iterations 2
smoothSolver:  Solving for k.liquid, Initial residual = 0.0819976851, Final residual = 1.244155699e-09, No Iterations 1
ExecutionTime = 2.61 s  ClockTime = 3 s

Courant Number mean: 4.250950672e-06 max: 1.591727629e-05
Max Ur Courant Number = 0.01017370065
deltaT = 0.0007395961929
Time = 0.00385249

PIMPLE: iteration 1
MULES: Solving for alpha.gas
MULES: Solving for alpha.gas
MULES: Solving for alpha.gas
alpha.gas volume fraction = 0.5083333343  Min(alpha1) = -6.795550689e-35  Max(alpha1) = 1
Constructing face momentum equations
Tf.gasAndLiquid: min = 111.5334065, mean = 111.5381028, max = 111.538618
iDmdt.gasAndLiquid: min = -0.0001157691034, mean = -1.164865351e-06, max = 8.345957749e-05, integral = -2.4975722e-10
wDmdt.gasAndLiquid: min = 0, mean = 8.141798144e-05, max = 0.006655637239, integral = 1.645538321e-08
DILUPBiCGStab:  Solving for e.gas, Initial residual = 0.01479932718, Final residual = 3.881259784e-09, No Iterations 1
DILUPBiCGStab:  Solving for e.liquid, Initial residual = 0.0426567707, Final residual = 2.045123961e-10, No Iterations 1
Tf.gasAndLiquid: min = 111.533345, mean = 111.5381042, max = 111.538618
iDmdt.gasAndLiquid: min = -0.0001161241466, mean = -1.114818618e-06, max = 0.0001085943307, integral = -2.433350539e-10
wDmdt.gasAndLiquid: min = 0, mean = 8.226573557e-05, max = 0.006724828378, integral = 1.662672274e-08
DILUPBiCGStab:  Solving for e.gas, Initial residual = 6.052295493e-05, Final residual = 2.864641351e-12, No Iterations 1
DILUPBiCGStab:  Solving for e.liquid, Initial residual = 6.379509014e-05, Final residual = 3.22376538e-12, No Iterations 1
DICPBiCGStab:  Solving for p_rgh, Initial residual = 8.310814293e-05, Final residual = 5.860253669e-06, No Iterations 27
DICPBiCGStab:  Solving for p_rgh, Initial residual = 3.652562203e-05, Final residual = 6.407864113e-09, No Iterations 56
PIMPLE: iteration 2
MULES: Solving for alpha.gas
MULES: Solving for alpha.gas
MULES: Solving for alpha.gas
alpha.gas volume fraction = 0.5083333344  Min(alpha1) = -1.219109879e-34  Max(alpha1) = 1
Constructing face momentum equations
Tf.gasAndLiquid: min = 111.533362, mean = 111.5381053, max = 111.538618
iDmdt.gasAndLiquid: min = -0.0001161186074, mean = -1.109244893e-06, max = 0.0001097866726, integral = -2.426501602e-10
wDmdt.gasAndLiquid: min = 0, mean = 8.309297456e-05, max = 0.006792339995, integral = 1.679391597e-08
DILUPBiCGStab:  Solving for e.gas, Initial residual = 0.00107315452, Final residual = 2.238012624e-10, No Iterations 1
DILUPBiCGStab:  Solving for e.liquid, Initial residual = 4.56353479e-05, Final residual = 7.024073018e-11, No Iterations 1
Tf.gasAndLiquid: min = 111.5332775, mean = 111.5381042, max = 111.5386181
iDmdt.gasAndLiquid: min = -0.0001192811604, mean = -1.159046156e-06, max = 0.0001104713781, integral = -2.519221045e-10
wDmdt.gasAndLiquid: min = 0, mean = 8.390163497e-05, max = 0.006858330996, integral = 1.695735427e-08
DILUPBiCGStab:  Solving for e.gas, Initial residual = 3.658872087e-05, Final residual = 6.695903375e-13, No Iterations 1
DILUPBiCGStab:  Solving for e.liquid, Initial residual = 5.280006321e-05, Final residual = 6.517496884e-13, No Iterations 1
DICPBiCGStab:  Solving for p_rgh, Initial residual = 2.108991262e-06, Final residual = 2.078093146e-07, No Iterations 11
DICPBiCGStab:  Solving for p_rgh, Initial residual = 1.320934967e-06, Final residual = 6.620174478e-09, No Iterations 62
smoothSolver:  Solving for k.gas, Initial residual = 0.004145949078, Final residual = 4.879202853e-11, No Iterations 2
smoothSolver:  Solving for k.liquid, Initial residual = 0.05469326111, Final residual = 1.302589567e-09, No Iterations 1
ExecutionTime = 2.86 s  ClockTime = 3 s

Courant Number mean: 5.222402396e-06 max: 2.21894483e-05
Max Ur Courant Number = 0.01495443287
deltaT = 0.0008902546766
Time = 0.00474275

PIMPLE: iteration 1
MULES: Solving for alpha.gas
MULES: Solving for alpha.gas
MULES: Solving for alpha.gas
alpha.gas volume fraction = 0.5083333347  Min(alpha1) = -1.011613336e-43  Max(alpha1) = 1
Constructing face momentum equations
Tf.gasAndLiquid: min = 111.5334875, mean = 111.5381062, max = 111.5386181
iDmdt.gasAndLiquid: min = -0.0001568108176, mean = -1.526446196e-06, max = 0.0001456251505, integral = -3.315151305e-10
wDmdt.gasAndLiquid: min = 0, mean = 8.547570987e-05, max = 0.006986764382, integral = 1.727549045e-08
DILUPBiCGStab:  Solving for e.gas, Initial residual = 0.01831104455, Final residual = 6.929226894e-09, No Iterations 1
DILUPBiCGStab:  Solving for e.liquid, Initial residual = 0.02868399762, Final residual = 1.459641203e-10, No Iterations 1
Tf.gasAndLiquid: min = 111.5334413, mean = 111.5381083, max = 111.5386181
iDmdt.gasAndLiquid: min = -0.0001564183948, mean = -1.443504985e-06, max = 0.0001812275888, integral = -3.200389407e-10
wDmdt.gasAndLiquid: min = 0, mean = 8.62349302e-05, max = 0.007048705714, integral = 1.742893643e-08
DILUPBiCGStab:  Solving for e.gas, Initial residual = 8.807439852e-05, Final residual = 6.005187726e-12, No Iterations 1
DILUPBiCGStab:  Solving for e.liquid, Initial residual = 4.146125534e-05, Final residual = 2.578880112e-12, No Iterations 1
DICPBiCGStab:  Solving for p_rgh, Initial residual = 6.251845493e-05, Final residual = 5.97293308e-06, No Iterations 34
DICPBiCGStab:  Solving for p_rgh, Initial residual = 2.395414225e-05, Final residual = 9.753892156e-09, No Iterations 60
PIMPLE: iteration 2
MULES: Solving for alpha.gas
MULES: Solving for alpha.gas
MULES: Solving for alpha.gas
alpha.gas volume fraction = 0.5083333348  Min(alpha1) = -2.763670676e-42  Max(alpha1) = 1
Constructing face momentum equations
Tf.gasAndLiquid: min = 111.5334583, mean = 111.5381096, max = 111.5386182
iDmdt.gasAndLiquid: min = -0.0001559212491, mean = -1.431616144e-06, max = 0.0001812153955, integral = -3.181531658e-10
wDmdt.gasAndLiquid: min = 0, mean = 8.697594947e-05, max = 0.007109177503, integral = 1.757870379e-08
DILUPBiCGStab:  Solving for e.gas, Initial residual = 0.001865009632, Final residual = 4.604781028e-10, No Iterations 1
DILUPBiCGStab:  Solving for e.liquid, Initial residual = 3.25330155e-05, Final residual = 6.008534154e-11, No Iterations 1
Tf.gasAndLiquid: min = 111.5334246, mean = 111.538109, max = 111.5386182
iDmdt.gasAndLiquid: min = -0.0001591431889, mean = -1.483266906e-06, max = 0.0001854829823, integral = -3.276468338e-10
wDmdt.gasAndLiquid: min = 0, mean = 8.770047269e-05, max = 0.007168324896, integral = 1.772513713e-08
DILUPBiCGStab:  Solving for e.gas, Initial residual = 2.57079437e-05, Final residual = 1.381382692e-12, No Iterations 1
DILUPBiCGStab:  Solving for e.liquid, Initial residual = 3.594593245e-05, Final residual = 4.748634399e-13, No Iterations 1
DICPBiCGStab:  Solving for p_rgh, Initial residual = 3.249319942e-06, Final residual = 2.924026175e-07, No Iterations 5
DICPBiCGStab:  Solving for p_rgh, Initial residual = 1.167931149e-06, Final residual = 4.221984761e-09, No Iterations 55
smoothSolver:  Solving for k.gas, Initial residual = 0.004041509296, Final residual = 6.855114859e-11, No Iterations 2
smoothSolver:  Solving for k.liquid, Initial residual = 0.04099091254, Final residual = 1.456471838e-09, No Iterations 1
ExecutionTime = 3.11 s  ClockTime = 3 s

Courant Number mean: 6.80564659e-06 max: 3.169092684e-05
Max Ur Courant Number = 0.0219178303
deltaT = 0.001070306184
Time = 0.00581306

PIMPLE: iteration 1
MULES: Solving for alpha.gas
MULES: Solving for alpha.gas
MULES: Solving for alpha.gas
alpha.gas volume fraction = 0.5083333352  Min(alpha1) = -1.073281281e-49  Max(alpha1) = 1
Constructing face momentum equations
Tf.gasAndLiquid: min = 111.5337033, mean = 111.5381117, max = 111.5386182
iDmdt.gasAndLiquid: min = -0.0002072754777, mean = -1.925805599e-06, max = 0.000242230946, integral = -4.250266976e-10
wDmdt.gasAndLiquid: min = 0, mean = 8.911111543e-05, max = 0.007283481187, integral = 1.801024205e-08
DILUPBiCGStab:  Solving for e.gas, Initial residual = 0.02253331635, Final residual = 8.080545802e-15, No Iterations 1
DILUPBiCGStab:  Solving for e.liquid, Initial residual = 0.02233794354, Final residual = 1.273684192e-10, No Iterations 1
Tf.gasAndLiquid: min = 111.5336856, mean = 111.5381147, max = 111.5386182
iDmdt.gasAndLiquid: min = -0.0002045456148, mean = -1.781923082e-06, max = 0.0002936232917, integral = -4.036751918e-10
wDmdt.gasAndLiquid: min = 0, mean = 8.979186395e-05, max = 0.00733905059, integral = 1.814782809e-08
DILUPBiCGStab:  Solving for e.gas, Initial residual = 0.0001414100309, Final residual = 1.27383815e-11, No Iterations 1
DILUPBiCGStab:  Solving for e.liquid, Initial residual = 2.855004887e-05, Final residual = 2.147421719e-12, No Iterations 1
DICPBiCGStab:  Solving for p_rgh, Initial residual = 4.591940575e-05, Final residual = 4.465823305e-06, No Iterations 40
DICPBiCGStab:  Solving for p_rgh, Initial residual = 1.491570058e-05, Final residual = 3.98165015e-09, No Iterations 59
PIMPLE: iteration 2
MULES: Solving for alpha.gas
MULES: Solving for alpha.gas
MULES: Solving for alpha.gas
alpha.gas volume fraction = 0.5083333353  Min(alpha1) = -1.717987222e-33  Max(alpha1) = 1
Constructing face momentum equations
Tf.gasAndLiquid: min = 111.5337074, mean = 111.5381164, max = 111.5386182
iDmdt.gasAndLiquid: min = -0.0002036712237, mean = -1.757889606e-06, max = 0.000290379895, integral = -3.993883344e-10
wDmdt.gasAndLiquid: min = 0, mean = 9.045644848e-05, max = 0.007393297889, integral = 1.828214723e-08
DILUPBiCGStab:  Solving for e.gas, Initial residual = 0.0005150143469, Final residual = 1.766377424e-10, No Iterations 1
DILUPBiCGStab:  Solving for e.liquid, Initial residual = 2.529298362e-05, Final residual = 5.809761262e-11, No Iterations 1
Tf.gasAndLiquid: min = 111.5337242, mean = 111.5381163, max = 111.5386183
iDmdt.gasAndLiquid: min = -0.0002081079374, mean = -1.806573663e-06, max = 0.0003008383783, integral = -4.081100079e-10
wDmdt.gasAndLiquid: min = 0, mean = 9.110636543e-05, max = 0.007446345777, integral = 1.84135019e-08
DILUPBiCGStab:  Solving for e.gas, Initial residual = 9.746287808e-06, Final residual = 2.760304115e-12, No Iterations 1
DILUPBiCGStab:  Solving for e.liquid, Initial residual = 2.628223067e-05, Final residual = 3.675700603e-13, No Iterations 1
DICPBiCGStab:  Solving for p_rgh, Initial residual = 3.248650507e-06, Final residual = 3.07410617e-07, No Iterations 10
DICPBiCGStab:  Solving for p_rgh, Initial residual = 1.404914712e-06, Final residual = 5.897075987e-09, No Iterations 61
smoothSolver:  Solving for k.gas, Initial residual = 0.003955596238, Final residual = 9.62393318e-11, No Iterations 2
smoothSolver:  Solving for k.liquid, Initial residual = 0.03341769131, Final residual = 1.671088371e-09, No Iterations 1
ExecutionTime = 3.36 s  ClockTime = 3 s

Courant Number mean: 8.455611788e-06 max: 4.57624248e-05
Max Ur Courant Number = 0.03186552257
deltaT = 0.001290232113
Time = 0.00710329

PIMPLE: iteration 1
MULES: Solving for alpha.gas
MULES: Solving for alpha.gas
MULES: Solving for alpha.gas
alpha.gas volume fraction = 0.5083333357  Min(alpha1) = -2.069342078e-65  Max(alpha1) = 1
Constructing face momentum equations
Tf.gasAndLiquid: min = 111.5340736, mean = 111.5381198, max = 111.5386183
iDmdt.gasAndLiquid: min = -0.0002686720158, mean = -2.317653227e-06, max = 0.0003893288007, integral = -5.230841309e-10
wDmdt.gasAndLiquid: min = 0, mean = 9.237205133e-05, max = 0.007549651583, integral = 1.86693096e-08
DILUPBiCGStab:  Solving for e.gas, Initial residual = 0.02735940362, Final residual = 2.049005611e-14, No Iterations 1
DILUPBiCGStab:  Solving for e.liquid, Initial residual = 0.01876942149, Final residual = 1.233203505e-10, No Iterations 1
Tf.gasAndLiquid: min = 111.5340586, mean = 111.5381235, max = 111.5386183
iDmdt.gasAndLiquid: min = -0.0002635851212, mean = -2.09428008e-06, max = 0.0004627575701, integral = -4.893094326e-10
wDmdt.gasAndLiquid: min = 0, mean = 9.298314214e-05, max = 0.007599526737, integral = 1.879281713e-08
DILUPBiCGStab:  Solving for e.gas, Initial residual = 0.0001881241393, Final residual = 2.724986237e-11, No Iterations 1
DILUPBiCGStab:  Solving for e.liquid, Initial residual = 2.129367944e-05, Final residual = 1.693118751e-12, No Iterations 1
DICPBiCGStab:  Solving for p_rgh, Initial residual = 4.113614906e-05, Final residual = 2.83291754e-06, No Iterations 64
DICPBiCGStab:  Solving for p_rgh, Initial residual = 1.189136713e-05, Final residual = 9.415722906e-09, No Iterations 55
PIMPLE: iteration 2
MULES: Solving for alpha.gas
MULES: Solving for alpha.gas
MULES: Solving for alpha.gas
alpha.gas volume fraction = 0.5083333359  Min(alpha1) = -7.779799884e-33  Max(alpha1) = 1
Constructing face momentum equations
Tf.gasAndLiquid: min = 111.5340735, mean = 111.5381255, max = 111.5386183
iDmdt.gasAndLiquid: min = -0.0002617413151, mean = -2.060388029e-06, max = 0.000452600512, integral = -4.830287094e-10
wDmdt.gasAndLiquid: min = 0, mean = 9.357986727e-05, max = 0.007648227132, integral = 1.891342121e-08
DILUPBiCGStab:  Solving for e.gas, Initial residual = 0.0005344593858, Final residual = 2.655501366e-10, No Iterations 1
DILUPBiCGStab:  Solving for e.liquid, Initial residual = 2.176424917e-05, Final residual = 5.800927668e-11, No Iterations 1
Tf.gasAndLiquid: min = 111.5341336, mean = 111.5381258, max = 111.5386183
iDmdt.gasAndLiquid: min = -0.0002667074364, mean = -2.1043633e-06, max = 0.000472225129, integral = -4.904861501e-10
wDmdt.gasAndLiquid: min = 0, mean = 9.416353477e-05, max = 0.007695859999, integral = 1.903138621e-08
DILUPBiCGStab:  Solving for e.gas, Initial residual = 2.845738717e-05, Final residual = 5.682445357e-12, No Iterations 1
DILUPBiCGStab:  Solving for e.liquid, Initial residual = 2.025286102e-05, Final residual = 2.990531105e-13, No Iterations 1
DICPBiCGStab:  Solving for p_rgh, Initial residual = 6.536669795e-06, Final residual = 6.471258255e-07, No Iterations 9
DICPBiCGStab:  Solving for p_rgh, Initial residual = 2.665243433e-06, Final residual = 9.341079377e-09, No Iterations 52
smoothSolver:  Solving for k.gas, Initial residual = 0.003899028765, Final residual = 1.361367544e-10, No Iterations 2
smoothSolver:  Solving for k.liquid, Initial residual = 0.0293712664, Final residual = 1.974056309e-09, No Iterations 1
ExecutionTime = 3.61 s  ClockTime = 4 s

Courant Number mean: 1.044764126e-05 max: 6.668037578e-05
Max Ur Courant Number = 0.04618057103
deltaT = 0.001548278535
Time = 0.00865157

PIMPLE: iteration 1
MULES: Solving for alpha.gas
MULES: Solving for alpha.gas
MULES: Solving for alpha.gas
alpha.gas volume fraction = 0.5083333367  Min(alpha1) = -3.419797658e-41  Max(alpha1) = 1
Constructing face momentum equations
Tf.gasAndLiquid: min = 111.5345502, mean = 111.5381302, max = 111.5386183
iDmdt.gasAndLiquid: min = -0.0003412669121, mean = -2.669939506e-06, max = 0.0006033089026, integral = -6.217291269e-10
wDmdt.gasAndLiquid: min = 0, mean = 9.530047335e-05, max = 0.007788642928, integral = 1.926117279e-08
DILUPBiCGStab:  Solving for e.gas, Initial residual = 0.03261077874, Final residual = 4.997895029e-14, No Iterations 1
DILUPBiCGStab:  Solving for e.liquid, Initial residual = 0.01641272667, Final residual = 1.295641381e-10, No Iterations 1
Tf.gasAndLiquid: min = 111.5345524, mean = 111.5381348, max = 111.5386183
iDmdt.gasAndLiquid: min = -0.000330780778, mean = -2.313755095e-06, max = 0.0006996863393, integral = -5.66393473e-10
wDmdt.gasAndLiquid: min = 0, mean = 9.584965034e-05, max = 0.007833458028, integral = 1.937216692e-08
DILUPBiCGStab:  Solving for e.gas, Initial residual = 0.0002719255247, Final residual = 5.736090715e-11, No Iterations 1
DILUPBiCGStab:  Solving for e.liquid, Initial residual = 1.567696481e-05, Final residual = 1.184132737e-12, No Iterations 1
DICPBiCGStab:  Solving for p_rgh, Initial residual = 5.246519359e-05, Final residual = 3.550560148e-06, No Iterations 39
DICPBiCGStab:  Solving for p_rgh, Initial residual = 1.680536197e-05, Final residual = 9.482658913e-09, No Iterations 62
PIMPLE: iteration 2
MULES: Solving for alpha.gas
MULES: Solving for alpha.gas
MULES: Solving for alpha.gas
alpha.gas volume fraction = 0.5083333367  Min(alpha1) = -2.395519443e-48  Max(alpha1) = 1
Constructing face momentum equations
Tf.gasAndLiquid: min = 111.5345648, mean = 111.5381372, max = 111.5386183
iDmdt.gasAndLiquid: min = -0.0003271119038, mean = -2.260795961e-06, max = 0.0006778887784, integral = -5.562800159e-10
wDmdt.gasAndLiquid: min = 0, mean = 9.638605194e-05, max = 0.007877228638, integral = 1.948057902e-08
DILUPBiCGStab:  Solving for e.gas, Initial residual = 0.0006012093262, Final residual = 4.349979333e-10, No Iterations 1
DILUPBiCGStab:  Solving for e.liquid, Initial residual = 1.949870856e-05, Final residual = 6.671828108e-11, No Iterations 1
Tf.gasAndLiquid: min = 111.534663, mean = 111.5381379, max = 111.5386184
iDmdt.gasAndLiquid: min = -0.0003326843347, mean = -2.296821095e-06, max = 0.0007083432649, integral = -5.614612983e-10
wDmdt.gasAndLiquid: min = 0, mean = 9.691081665e-05, max = 0.007920048074, integral = 1.958663918e-08
DILUPBiCGStab:  Solving for e.gas, Initial residual = 5.483712747e-05, Final residual = 1.157203744e-11, No Iterations 1
DILUPBiCGStab:  Solving for e.liquid, Initial residual = 1.604676498e-05, Final residual = 2.768025379e-13, No Iterations 1
DICPBiCGStab:  Solving for p_rgh, Initial residual = 1.151201074e-05, Final residual = 1.022311123e-06, No Iterations 9
DICPBiCGStab:  Solving for p_rgh, Initial residual = 4.569967506e-06, Final residual = 7.730123928e-09, No Iterations 61
smoothSolver:  Solving for k.gas, Initial residual = 0.003845759673, Final residual = 1.907354866e-10, No Iterations 2
smoothSolver:  Solving for k.liquid, Initial residual = 0.02732077828, Final residual = 2.372962218e-09, No Iterations 1
ExecutionTime = 3.86 s  ClockTime = 4 s

Courant Number mean: 1.284100051e-05 max: 9.671583742e-05
Max Ur Courant Number = 0.0661599956
deltaT = 0.001864253746
Time = 0.0105158

PIMPLE: iteration 1
MULES: Solving for alpha.gas
MULES: Solving for alpha.gas
MULES: Solving for alpha.gas
alpha.gas volume fraction = 0.5083333375  Min(alpha1) = -7.206074849e-41  Max(alpha1) = 1
Constructing face momentum equations
Tf.gasAndLiquid: min = 111.5351402, mean = 111.5381431, max = 111.5386184
iDmdt.gasAndLiquid: min = -0.0004229656566, mean = -2.886512369e-06, max = 0.0008910470389, integral = -7.052979967e-10
wDmdt.gasAndLiquid: min = 0, mean = 9.793326297e-05, max = 0.008003475351, integral = 1.979328574e-08
DILUPBiCGStab:  Solving for e.gas, Initial residual = 0.03841465186, Final residual = 1.212025957e-13, No Iterations 1
DILUPBiCGStab:  Solving for e.liquid, Initial residual = 0.01485662431, Final residual = 1.444475118e-10, No Iterations 1
Tf.gasAndLiquid: min = 111.5351251, mean = 111.5381484, max = 111.5386184
iDmdt.gasAndLiquid: min = -0.0004077822493, mean = -2.382490591e-06, max = 0.001004686639, integral = -6.277046149e-10
wDmdt.gasAndLiquid: min = 0, mean = 9.842734748e-05, max = 0.008043788898, integral = 1.989314513e-08
DILUPBiCGStab:  Solving for e.gas, Initial residual = 0.0003278357666, Final residual = 1.214948861e-10, No Iterations 1
DILUPBiCGStab:  Solving for e.liquid, Initial residual = 1.272129572e-05, Final residual = 6.737860045e-13, No Iterations 1
DICPBiCGStab:  Solving for p_rgh, Initial residual = 6.707225004e-05, Final residual = 6.370403615e-06, No Iterations 30
DICPBiCGStab:  Solving for p_rgh, Initial residual = 2.923456486e-05, Final residual = 8.927392788e-09, No Iterations 70
PIMPLE: iteration 2
MULES: Solving for alpha.gas
MULES: Solving for alpha.gas
MULES: Solving for alpha.gas
alpha.gas volume fraction = 0.5083333375  Min(alpha1) = -5.745567752e-32  Max(alpha1) = 1
Constructing face momentum equations
Tf.gasAndLiquid: min = 111.5351212, mean = 111.5381511, max = 111.5386184
iDmdt.gasAndLiquid: min = -0.0004029938774, mean = -2.319763873e-06, max = 0.0009682052807, integral = -6.156886782e-10
wDmdt.gasAndLiquid: min = 0, mean = 9.891006812e-05, max = 0.008083173543, integral = 1.999070777e-08
DILUPBiCGStab:  Solving for e.gas, Initial residual = 0.0006861331898, Final residual = 7.307470722e-10, No Iterations 1
DILUPBiCGStab:  Solving for e.liquid, Initial residual = 1.845311424e-05, Final residual = 7.791701761e-11, No Iterations 1
Tf.gasAndLiquid: min = 111.5352472, mean = 111.5381521, max = 111.5386184
iDmdt.gasAndLiquid: min = -0.000409812063, mean = -2.348283255e-06, max = 0.001007734305, integral = -6.18371386e-10
wDmdt.gasAndLiquid: min = 0, mean = 9.938240889e-05, max = 0.00812170994, integral = 2.008617253e-08
DILUPBiCGStab:  Solving for e.gas, Initial residual = 7.867418021e-05, Final residual = 2.363007745e-11, No Iterations 1
DILUPBiCGStab:  Solving for e.liquid, Initial residual = 1.314881282e-05, Final residual = 2.679926426e-13, No Iterations 1
DICPBiCGStab:  Solving for p_rgh, Initial residual = 1.619139537e-05, Final residual = 1.463684313e-06, No Iterations 9
DICPBiCGStab:  Solving for p_rgh, Initial residual = 6.939009141e-06, Final residual = 1.233893576e-09, No Iterations 66
smoothSolver:  Solving for k.gas, Initial residual = 0.003824509996, Final residual = 2.697220565e-10, No Iterations 2
smoothSolver:  Solving for k.liquid, Initial residual = 0.02685937535, Final residual = 3.011174566e-09, No Iterations 1
ExecutionTime = 4.11 s  ClockTime = 4 s

Courant Number mean: 1.579096877e-05 max: 0.0001424456058
Max Ur Courant Number = 0.0944748678
deltaT = 0.002237104496
Time = 0.0127529

PIMPLE: iteration 1
MULES: Solving for alpha.gas
MULES: Solving for alpha.gas
MULES: Solving for alpha.gas
alpha.gas volume fraction = 0.5083333385  Min(alpha1) = -7.138197402e-40  Max(alpha1) = 1
Constructing face momentum equations
Tf.gasAndLiquid: min = 111.5357532, mean = 111.5381581, max = 111.5386184
iDmdt.gasAndLiquid: min = -0.0005181390076, mean = -2.924508501e-06, max = 0.001234117124, integral = -7.707658461e-10
wDmdt.gasAndLiquid: min = 0, mean = 0.0001003029419, max = 0.008196811277, integral = 2.02722214e-08
DILUPBiCGStab:  Solving for e.gas, Initial residual = 0.0444812991, Final residual = 2.82232677e-13, No Iterations 1
DILUPBiCGStab:  Solving for e.liquid, Initial residual = 0.01369387687, Final residual = 1.687734081e-10, No Iterations 1
Tf.gasAndLiquid: min = 111.5357623, mean = 111.5381645, max = 111.5386184
iDmdt.gasAndLiquid: min = -0.0004922813447, mean = -2.182605229e-06, max = 0.001355062143, integral = -6.563024885e-10
wDmdt.gasAndLiquid: min = 0, mean = 0.0001007479588, max = 0.008233116434, integral = 2.036216374e-08
DILUPBiCGStab:  Solving for e.gas, Initial residual = 0.0004330435876, Final residual = 2.519793746e-10, No Iterations 1
DILUPBiCGStab:  Solving for e.liquid, Initial residual = 1.005673712e-05, Final residual = 3.29796727e-13, No Iterations 1
DICPBiCGStab:  Solving for p_rgh, Initial residual = 8.486323551e-05, Final residual = 8.213670845e-06, No Iterations 32
DICPBiCGStab:  Solving for p_rgh, Initial residual = 4.213636116e-05, Final residual = 5.925906142e-09, No Iterations 67
PIMPLE: iteration 2
MULES: Solving for alpha.gas
MULES: Solving for alpha.gas
MULES: Solving for alpha.gas
alpha.gas volume fraction = 0.5083333386  Min(alpha1) = -1.803280599e-47  Max(alpha1) = 1
Constructing face momentum equations
Tf.gasAndLiquid: min = 111.535748, mean = 111.5381676, max = 111.5386184
iDmdt.gasAndLiquid: min = -0.000485599951, mean = -2.094955349e-06, max = 0.00131481746, integral = -6.395902866e-10
wDmdt.gasAndLiquid: min = 0, mean = 0.0001011828667, max = 0.008268595418, integral = 2.045006295e-08
DILUPBiCGStab:  Solving for e.gas, Initial residual = 0.000840536316, Final residual = 1.296236294e-09, No Iterations 1
DILUPBiCGStab:  Solving for e.liquid, Initial residual = 1.698868817e-05, Final residual = 1.124250294e-10, No Iterations 1
Tf.gasAndLiquid: min = 111.5358894, mean = 111.5381689, max = 111.5386184
iDmdt.gasAndLiquid: min = -0.0004951554268, mean = -2.112732885e-06, max = 0.001352158653, integral = -6.388217177e-10
wDmdt.gasAndLiquid: min = 0, mean = 0.0001016085091, max = 0.008303317375, integral = 2.05360895e-08
DILUPBiCGStab:  Solving for e.gas, Initial residual = 0.0001058698077, Final residual = 4.734620803e-11, No Iterations 1
DILUPBiCGStab:  Solving for e.liquid, Initial residual = 1.0993404e-05, Final residual = 3.419131888e-13, No Iterations 1
DICPBiCGStab:  Solving for p_rgh, Initial residual = 1.976466647e-05, Final residual = 1.893936421e-06, No Iterations 9
DICPBiCGStab:  Solving for p_rgh, Initial residual = 9.465551623e-06, Final residual = 4.994388973e-09, No Iterations 59
smoothSolver:  Solving for k.gas, Initial residual = 0.003812702818, Final residual = 3.792694122e-10, No Iterations 2
smoothSolver:  Solving for k.liquid, Initial residual = 0.02735137711, Final residual = 4.050148501e-09, No Iterations 1
ExecutionTime = 4.38 s  ClockTime = 4 s

Courant Number mean: 1.934943575e-05 max: 0.0002122535707
Max Ur Courant Number = 0.1334097751
deltaT = 0.002643850767
Time = 0.0153968

PIMPLE: iteration 1
MULES: Solving for alpha.gas
MULES: Solving for alpha.gas
MULES: Solving for alpha.gas
alpha.gas volume fraction = 0.5083333399  Min(alpha1) = -1.337851064e-31  Max(alpha1) = 1
Constructing face momentum equations
Tf.gasAndLiquid: min = 111.5364114, mean = 111.5381756, max = 111.5386185
iDmdt.gasAndLiquid: min = -0.0006217213629, mean = -2.597684935e-06, max = 0.001594678747, integral = -7.891630542e-10
wDmdt.gasAndLiquid: min = 0, mean = 0.0001024382471, max = 0.008371002668, integral = 2.07037878e-08
DILUPBiCGStab:  Solving for e.gas, Initial residual = 0.04981493626, Final residual = 5.916759049e-13, No Iterations 1
DILUPBiCGStab:  Solving for e.liquid, Initial residual = 0.01263223051, Final residual = 2.119434645e-10, No Iterations 1
Tf.gasAndLiquid: min = 111.5364316, mean = 111.5381829, max = 111.5386297
iDmdt.gasAndLiquid: min = -0.0005787630712, mean = -1.564095975e-06, max = 0.001701166863, integral = -6.301909803e-10
wDmdt.gasAndLiquid: min = 0, mean = 0.0001028395281, max = 0.008403735732, integral = 2.078489068e-08
DILUPBiCGStab:  Solving for e.gas, Initial residual = 0.0005389802905, Final residual = 4.817809277e-10, No Iterations 1
DILUPBiCGStab:  Solving for e.liquid, Initial residual = 8.253537686e-06, Final residual = 3.266636066e-13, No Iterations 1
DICPBiCGStab:  Solving for p_rgh, Initial residual = 0.0001051977795, Final residual = 1.022056143e-05, No Iterations 44
DICPBiCGStab:  Solving for p_rgh, Initial residual = 5.181151107e-05, Final residual = 6.958653034e-09, No Iterations 59
PIMPLE: iteration 2
MULES: Solving for alpha.gas
MULES: Solving for alpha.gas
MULES: Solving for alpha.gas
alpha.gas volume fraction = 0.5083333397  Min(alpha1) = -5.094805022e-32  Max(alpha1) = 1
Constructing face momentum equations
Tf.gasAndLiquid: min = 111.5364062, mean = 111.5381864, max = 111.5386384
iDmdt.gasAndLiquid: min = -0.0005698674273, mean = -1.443869518e-06, max = 0.001668774211, integral = -6.078945161e-10
wDmdt.gasAndLiquid: min = 0, mean = 0.0001032318166, max = 0.008435734007, integral = 2.086417609e-08
DILUPBiCGStab:  Solving for e.gas, Initial residual = 0.001166205673, Final residual = 2.551592332e-09, No Iterations 1
DILUPBiCGStab:  Solving for e.liquid, Initial residual = 1.617801562e-05, Final residual = 1.594359048e-10, No Iterations 1
Tf.gasAndLiquid: min = 111.5365427, mean = 111.538188, max = 111.538645
iDmdt.gasAndLiquid: min = -0.0005830313185, mean = -1.45680735e-06, max = 0.001699811173, integral = -6.046496683e-10
wDmdt.gasAndLiquid: min = 0, mean = 0.0001036158289, max = 0.00846705622, integral = 2.094178879e-08
DILUPBiCGStab:  Solving for e.gas, Initial residual = 0.0001225729795, Final residual = 9.00680648e-11, No Iterations 1
DILUPBiCGStab:  Solving for e.liquid, Initial residual = 9.357603706e-06, Final residual = 4.700605137e-13, No Iterations 1
DICPBiCGStab:  Solving for p_rgh, Initial residual = 2.262136136e-05, Final residual = 2.132061288e-06, No Iterations 9
DICPBiCGStab:  Solving for p_rgh, Initial residual = 1.209285987e-05, Final residual = 5.251819096e-09, No Iterations 62
smoothSolver:  Solving for k.gas, Initial residual = 0.003761932056, Final residual = 5.12006895e-10, No Iterations 2
smoothSolver:  Solving for k.liquid, Initial residual = 0.02810882392, Final residual = 5.660541225e-09, No Iterations 1
ExecutionTime = 4.63 s  ClockTime = 5 s

Courant Number mean: 2.342398009e-05 max: 0.0003056355137
Max Ur Courant Number = 0.1835984049
deltaT = 0.003021543734
Time = 0.0184183

PIMPLE: iteration 1
MULES: Solving for alpha.gas
MULES: Solving for alpha.gas
MULES: Solving for alpha.gas
alpha.gas volume fraction = 0.508333341  Min(alpha1) = -2.959423356e-30  Max(alpha1) = 1
Constructing face momentum equations
Tf.gasAndLiquid: min = 111.5369947, mean = 111.538195, max = 111.5386482
iDmdt.gasAndLiquid: min = -0.0007233355819, mean = -1.745358234e-06, max = 0.001957443029, integral = -7.377149826e-10
wDmdt.gasAndLiquid: min = 0, mean = 0.0001043646122, max = 0.008528130524, integral = 2.109312533e-08
DILUPBiCGStab:  Solving for e.gas, Initial residual = 0.05305398805, Final residual = 1.012644882e-12, No Iterations 1
DILUPBiCGStab:  Solving for e.liquid, Initial residual = 0.01145361529, Final residual = 2.753403513e-10, No Iterations 1
Tf.gasAndLiquid: min = 111.537074, mean = 111.5382029, max = 111.5386674
iDmdt.gasAndLiquid: min = -0.0006563075969, mean = -4.033113089e-07, max = 0.001981582519, integral = -5.326505553e-10
wDmdt.gasAndLiquid: min = 0, mean = 0.0001047268798, max = 0.008557677835, integral = 2.116634323e-08
DILUPBiCGStab:  Solving for e.gas, Initial residual = 0.0006064041172, Final residual = 7.860235238e-10, No Iterations 1
DILUPBiCGStab:  Solving for e.liquid, Initial residual = 7.163414162e-06, Final residual = 4.172461997e-13, No Iterations 1
DICPBiCGStab:  Solving for p_rgh, Initial residual = 0.0001250288129, Final residual = 9.778861483e-06, No Iterations 47
DICPBiCGStab:  Solving for p_rgh, Initial residual = 5.383844919e-05, Final residual = 2.224302849e-09, No Iterations 65
PIMPLE: iteration 2
MULES: Solving for alpha.gas
MULES: Solving for alpha.gas
MULES: Solving for alpha.gas
alpha.gas volume fraction = 0.508333341  Min(alpha1) = -6.548370311e-38  Max(alpha1) = 1
Constructing face momentum equations
Tf.gasAndLiquid: min = 111.5370391, mean = 111.5382068, max = 111.5386767
iDmdt.gasAndLiquid: min = -0.0006461482875, mean = -2.519001916e-07, max = 0.001967343567, integral = -5.055587262e-10
wDmdt.gasAndLiquid: min = 0, mean = 0.0001050811457, max = 0.008586571416, integral = 2.123794388e-08
DILUPBiCGStab:  Solving for e.gas, Initial residual = 0.001442274003, Final residual = 4.50511862e-09, No Iterations 1
DILUPBiCGStab:  Solving for e.liquid, Initial residual = 1.477026035e-05, Final residual = 2.056565622e-10, No Iterations 1
Tf.gasAndLiquid: min = 111.5371174, mean = 111.5382085, max = 111.5386822
iDmdt.gasAndLiquid: min = -0.0006654536495, mean = -2.70263156e-07, max = 0.001985457792, integral = -5.028976427e-10
wDmdt.gasAndLiquid: min = 0, mean = 0.0001054280136, max = 0.008614860796, integral = 2.130804932e-08
DILUPBiCGStab:  Solving for e.gas, Initial residual = 0.0001216233055, Final residual = 1.507611693e-10, No Iterations 1
DILUPBiCGStab:  Solving for e.liquid, Initial residual = 7.954733461e-06, Final residual = 5.414089258e-13, No Iterations 1
DICPBiCGStab:  Solving for p_rgh, Initial residual = 2.489823519e-05, Final residual = 1.649675063e-06, No Iterations 9
DICPBiCGStab:  Solving for p_rgh, Initial residual = 1.3820409e-05, Final residual = 1.050467914e-09, No Iterations 62
smoothSolver:  Solving for k.gas, Initial residual = 0.003608055496, Final residual = 6.297092784e-10, No Iterations 2
smoothSolver:  Solving for k.liquid, Initial residual = 0.02822596345, Final residual = 7.700432893e-09, No Iterations 1
ExecutionTime = 4.89 s  ClockTime = 5 s

Courant Number mean: 2.749359776e-05 max: 0.0004224443712
Max Ur Courant Number = 0.2407756123
deltaT = 0.003021543734
Time = 0.0214399

PIMPLE: iteration 1
MULES: Solving for alpha.gas
MULES: Solving for alpha.gas
MULES: Solving for alpha.gas
alpha.gas volume fraction = 0.5083333425  Min(alpha1) = -5.544011074e-30  Max(alpha1) = 1
Constructing face momentum equations
Tf.gasAndLiquid: min = 111.5375081, mean = 111.5382147, max = 111.5386848
iDmdt.gasAndLiquid: min = -0.0007992137963, mean = -2.621533983e-07, max = 0.002231414346, integral = -5.94891373e-10
wDmdt.gasAndLiquid: min = 0, mean = 0.0001061045438, max = 0.008670035797, integral = 2.14447828e-08
DILUPBiCGStab:  Solving for e.gas, Initial residual = 0.04910400844, Final residual = 8.578097028e-13, No Iterations 1
DILUPBiCGStab:  Solving for e.liquid, Initial residual = 0.009259621753, Final residual = 3.403484288e-10, No Iterations 1
Tf.gasAndLiquid: min = 111.5375704, mean = 111.5382225, max = 111.5387043
iDmdt.gasAndLiquid: min = -0.0006662573597, mean = 1.537099513e-06, max = 0.002202000375, integral = -2.9883139e-10
wDmdt.gasAndLiquid: min = 0, mean = 0.0001064319704, max = 0.008696738571, integral = 2.151095897e-08
DILUPBiCGStab:  Solving for e.gas, Initial residual = 0.0006643309475, Final residual = 7.697888433e-10, No Iterations 1
DILUPBiCGStab:  Solving for e.liquid, Initial residual = 5.725168998e-06, Final residual = 5.667857081e-13, No Iterations 1
DICPBiCGStab:  Solving for p_rgh, Initial residual = 0.0001223174854, Final residual = 1.207536816e-05, No Iterations 45
DICPBiCGStab:  Solving for p_rgh, Initial residual = 4.784853605e-05, Final residual = 9.639774269e-09, No Iterations 66
PIMPLE: iteration 2
MULES: Solving for alpha.gas
MULES: Solving for alpha.gas
MULES: Solving for alpha.gas
alpha.gas volume fraction = 0.5083333427  Min(alpha1) = -6.615084549e-38  Max(alpha1) = 1
Constructing face momentum equations
Tf.gasAndLiquid: min = 111.537583, mean = 111.5382263, max = 111.5387137
iDmdt.gasAndLiquid: min = -0.0006523498698, mean = 1.75656021e-06, max = 0.002201864274, integral = -2.592488737e-10
wDmdt.gasAndLiquid: min = 0, mean = 0.0001067522481, max = 0.008722857403, integral = 2.157569029e-08
DILUPBiCGStab:  Solving for e.gas, Initial residual = 0.002134630035, Final residual = 6.620862935e-09, No Iterations 1
DILUPBiCGStab:  Solving for e.liquid, Initial residual = 1.100875837e-05, Final residual = 1.596521616e-10, No Iterations 1
Tf.gasAndLiquid: min = 111.5375772, mean = 111.5382279, max = 111.5387181
iDmdt.gasAndLiquid: min = -0.0006821083212, mean = 1.661477171e-06, max = 0.002217763392, integral = -2.7427574e-10
wDmdt.gasAndLiquid: min = 0, mean = 0.0001070659013, max = 0.008748435294, integral = 2.16390827e-08
DILUPBiCGStab:  Solving for e.gas, Initial residual = 8.203732866e-05, Final residual = 1.5994094e-10, No Iterations 1
DILUPBiCGStab:  Solving for e.liquid, Initial residual = 6.246153287e-06, Final residual = 3.990062079e-13, No Iterations 1
DICPBiCGStab:  Solving for p_rgh, Initial residual = 2.410831884e-05, Final residual = 1.448955702e-06, No Iterations 9
DICPBiCGStab:  Solving for p_rgh, Initial residual = 1.318140111e-05, Final residual = 7.009251547e-09, No Iterations 63
smoothSolver:  Solving for k.gas, Initial residual = 0.003051779077, Final residual = 5.386855808e-10, No Iterations 2
smoothSolver:  Solving for k.liquid, Initial residual = 0.02474444987, Final residual = 7.434699385e-09, No Iterations 1
ExecutionTime = 5.17 s  ClockTime = 5 s

Courant Number mean: 2.840200179e-05 max: 0.0004997422527
Max Ur Courant Number = 0.2689664249
deltaT = 0.002805719182
Time = 0.0242456

PIMPLE: iteration 1
MULES: Solving for alpha.gas
MULES: Solving for alpha.gas
MULES: Solving for alpha.gas
alpha.gas volume fraction = 0.5083333443  Min(alpha1) = -8.565876863e-31  Max(alpha1) = 1
Constructing face momentum equations
Tf.gasAndLiquid: min = 111.5376578, mean = 111.538232, max = 111.5387202
iDmdt.gasAndLiquid: min = -0.0007923282672, mean = 1.975625304e-06, max = 0.002445586919, integral = -3.164130546e-10
wDmdt.gasAndLiquid: min = 0, mean = 0.0001076777605, max = 0.008798330882, integral = 2.176274553e-08
DILUPBiCGStab:  Solving for e.gas, Initial residual = 0.04201896496, Final residual = 4.799771489e-13, No Iterations 1
DILUPBiCGStab:  Solving for e.liquid, Initial residual = 0.007196895267, Final residual = 2.614895181e-10, No Iterations 1
Tf.gasAndLiquid: min = 111.5376708, mean = 111.5382387, max = 111.5387393
iDmdt.gasAndLiquid: min = -0.0006533785218, mean = 3.376977255e-06, max = 0.002400499959, integral = -9.593948499e-11
wDmdt.gasAndLiquid: min = 0, mean = 0.0001079739944, max = 0.008822487362, integral = 2.182261736e-08
DILUPBiCGStab:  Solving for e.gas, Initial residual = 0.0004184112537, Final residual = 5.707334676e-10, No Iterations 1
DILUPBiCGStab:  Solving for e.liquid, Initial residual = 5.003820989e-06, Final residual = 4.351694815e-13, No Iterations 1
DICPBiCGStab:  Solving for p_rgh, Initial residual = 0.0001096646502, Final residual = 1.038794608e-05, No Iterations 45
DICPBiCGStab:  Solving for p_rgh, Initial residual = 3.60288462e-05, Final residual = 6.195577833e-09, No Iterations 69
PIMPLE: iteration 2
MULES: Solving for alpha.gas
MULES: Solving for alpha.gas
MULES: Solving for alpha.gas
alpha.gas volume fraction = 0.5083333443  Min(alpha1) = -1.359484569e-37  Max(alpha1) = 1
Constructing face momentum equations
Tf.gasAndLiquid: min = 111.5376774, mean = 111.538242, max = 111.5387483
iDmdt.gasAndLiquid: min = -0.0006382839056, mean = 3.534364947e-06, max = 0.002399483043, integral = -6.927717788e-11
wDmdt.gasAndLiquid: min = 0, mean = 0.0001082638228, max = 0.008846120708, integral = 2.188119455e-08
DILUPBiCGStab:  Solving for e.gas, Initial residual = 0.001529549807, Final residual = 3.807096604e-09, No Iterations 1
DILUPBiCGStab:  Solving for e.liquid, Initial residual = 7.74799518e-06, Final residual = 8.825865345e-11, No Iterations 1
Tf.gasAndLiquid: min = 111.5376806, mean = 111.5382436, max = 111.5387528
iDmdt.gasAndLiquid: min = -0.0006698797324, mean = 3.426074746e-06, max = 0.002412352536, integral = -8.734083611e-11
wDmdt.gasAndLiquid: min = 0, mean = 0.0001085477079, max = 0.008869268834, integral = 2.193857056e-08
DILUPBiCGStab:  Solving for e.gas, Initial residual = 7.633887499e-05, Final residual = 1.23020228e-10, No Iterations 1
DILUPBiCGStab:  Solving for e.liquid, Initial residual = 4.533349918e-06, Final residual = 2.270459494e-13, No Iterations 1
DICPBiCGStab:  Solving for p_rgh, Initial residual = 2.069222137e-05, Final residual = 1.174875225e-06, No Iterations 9
DICPBiCGStab:  Solving for p_rgh, Initial residual = 1.084314447e-05, Final residual = 8.546684112e-09, No Iterations 64
smoothSolver:  Solving for k.gas, Initial residual = 0.002414573052, Final residual = 3.659706471e-10, No Iterations 2
smoothSolver:  Solving for k.liquid, Initial residual = 0.02031664705, Final residual = 5.692232396e-09, No Iterations 1
ExecutionTime = 5.47 s  ClockTime = 5 s

Courant Number mean: 2.726826917e-05 max: 0.0005336111417
Max Ur Courant Number = 0.2719824069
deltaT = 0.002612221307
Time = 0.0268578

PIMPLE: iteration 1
MULES: Solving for alpha.gas
MULES: Solving for alpha.gas
MULES: Solving for alpha.gas
alpha.gas volume fraction = 0.5083333454  Min(alpha1) = -4.432419548e-46  Max(alpha1) = 1
Constructing face momentum equations
Tf.gasAndLiquid: min = 111.5376821, mean = 111.5382444, max = 111.5387548
iDmdt.gasAndLiquid: min = -0.0007605843692, mean = 3.936887669e-06, max = 0.002626835979, integral = -9.775222269e-11
wDmdt.gasAndLiquid: min = 0, mean = 0.0001091015785, max = 0.008914431262, integral = 2.20505133e-08
DILUPBiCGStab:  Solving for e.gas, Initial residual = 0.03772662648, Final residual = 2.967106383e-13, No Iterations 1
DILUPBiCGStab:  Solving for e.liquid, Initial residual = 0.005798601342, Final residual = 1.583004714e-10, No Iterations 1
Tf.gasAndLiquid: min = 111.5376943, mean = 111.5382506, max = 111.538773
iDmdt.gasAndLiquid: min = -0.000678787593, mean = 5.073411144e-06, max = 0.002570516621, integral = 7.212521465e-11
wDmdt.gasAndLiquid: min = 0, mean = 0.0001093698286, max = 0.008936303756, integral = 2.210472932e-08
DILUPBiCGStab:  Solving for e.gas, Initial residual = 0.0003372463904, Final residual = 4.202745374e-10, No Iterations 1
[...]
DILUPBiCGStab:  Solving for e.gas, Initial residual = 7.328694955e-06, Final residual = 5.560662029e-12, No Iterations 1
DILUPBiCGStab:  Solving for e.liquid, Initial residual = 2.91844501e-08, Final residual = 3.4521898e-13, No Iterations 1
DICPBiCGStab:  Solving for p_rgh, Initial residual = 8.658876979e-05, Final residual = 5.08934976e-06, No Iterations 22
DICPBiCGStab:  Solving for p_rgh, Initial residual = 7.146528408e-06, Final residual = 7.57767912e-10, No Iterations 72
PIMPLE: iteration 2
MULES: Solving for alpha.gas
MULES: Solving for alpha.gas
MULES: Solving for alpha.gas
alpha.gas volume fraction = 0.5083348295  Min(alpha1) = -2.769216328e-30  Max(alpha1) = 1
Constructing face momentum equations
Tf.gasAndLiquid: min = 111.5352146, mean = 111.5503076, max = 111.5653464
iDmdt.gasAndLiquid: min = -0.2429922673, mean = 0.0005044190254, max = 0.5137253824, integral = 1.020185599e-07
wDmdt.gasAndLiquid: min = 0, mean = 5.823412059e-05, max = 0.01049345914, integral = 1.176969452e-08
DILUPBiCGStab:  Solving for e.gas, Initial residual = 2.464905691e-05, Final residual = 8.202460874e-12, No Iterations 1
DILUPBiCGStab:  Solving for e.liquid, Initial residual = 1.820818068e-07, Final residual = 1.961737042e-12, No Iterations 1
Tf.gasAndLiquid: min = 111.5352066, mean = 111.5503121, max = 111.565357
iDmdt.gasAndLiquid: min = -0.243126808, mean = 0.0005041697364, max = 0.5137341779, integral = 1.020034942e-07
wDmdt.gasAndLiquid: min = 0, mean = 5.822238201e-05, max = 0.01049347823, integral = 1.176732204e-08
DILUPBiCGStab:  Solving for e.gas, Initial residual = 3.155473085e-06, Final residual = 1.363368718e-12, No Iterations 1
DILUPBiCGStab:  Solving for e.liquid, Initial residual = 7.631330669e-09, Final residual = 7.631330669e-09, No Iterations 0
DICPBiCGStab:  Solving for p_rgh, Initial residual = 2.539159595e-06, Final residual = 2.306682175e-07, No Iterations 4
DICPBiCGStab:  Solving for p_rgh, Initial residual = 9.444306256e-07, Final residual = 4.301467782e-09, No Iterations 52
smoothSolver:  Solving for k.gas, Initial residual = 0.0009648971197, Final residual = 6.109390633e-08, No Iterations 1
smoothSolver:  Solving for k.liquid, Initial residual = 0.001560318316, Final residual = 4.78920726e-11, No Iterations 2
ExecutionTime = 181.31 s  ClockTime = 186 s

Courant Number mean: 0.004259210495 max: 0.05700781161
Max Ur Courant Number = 0.2497030149
deltaT = 0.001449275362
Time = 0.994203

PIMPLE: iteration 1
MULES: Solving for alpha.gas
MULES: Solving for alpha.gas
MULES: Solving for alpha.gas
alpha.gas volume fraction = 0.5083348325  Min(alpha1) = -2.912776296e-33  Max(alpha1) = 1
Constructing face momentum equations
Tf.gasAndLiquid: min = 111.535213, mean = 111.5503121, max = 111.565357
iDmdt.gasAndLiquid: min = -0.2438270411, mean = 0.000503891157, max = 0.5137410935, integral = 1.019975843e-07
wDmdt.gasAndLiquid: min = 0, mean = 5.819938795e-05, max = 0.01049351597, integral = 1.176267471e-08
DILUPBiCGStab:  Solving for e.gas, Initial residual = 0.001960669161, Final residual = 1.914017338e-09, No Iterations 1
DILUPBiCGStab:  Solving for e.liquid, Initial residual = 2.559348754e-05, Final residual = 9.078634461e-11, No Iterations 1
Tf.gasAndLiquid: min = 111.5351947, mean = 111.5503298, max = 111.5653989
iDmdt.gasAndLiquid: min = -0.2429542927, mean = 0.000504419716, max = 0.5141372678, integral = 1.020420483e-07
wDmdt.gasAndLiquid: min = 0, mean = 5.8187517e-05, max = 0.0104935344, integral = 1.176027547e-08
DILUPBiCGStab:  Solving for e.gas, Initial residual = 7.329321597e-06, Final residual = 5.555336944e-12, No Iterations 1
DILUPBiCGStab:  Solving for e.liquid, Initial residual = 2.922772249e-08, Final residual = 3.468050111e-13, No Iterations 1
DICPBiCGStab:  Solving for p_rgh, Initial residual = 8.662358537e-05, Final residual = 5.181117702e-06, No Iterations 22
DICPBiCGStab:  Solving for p_rgh, Initial residual = 7.289362821e-06, Final residual = 9.182370207e-09, No Iterations 70
PIMPLE: iteration 2
MULES: Solving for alpha.gas
MULES: Solving for alpha.gas
MULES: Solving for alpha.gas
alpha.gas volume fraction = 0.5083348335  Min(alpha1) = -2.383359156e-27  Max(alpha1) = 1
Constructing face momentum equations
Tf.gasAndLiquid: min = 111.5351866, mean = 111.5503387, max = 111.5654199
iDmdt.gasAndLiquid: min = -0.2428158304, mean = 0.0005044616819, max = 0.5141681448, integral = 1.020448295e-07
wDmdt.gasAndLiquid: min = 0, mean = 5.817570218e-05, max = 0.01049355354, integral = 1.175788758e-08
DILUPBiCGStab:  Solving for e.gas, Initial residual = 2.422195089e-05, Final residual = 7.746811917e-12, No Iterations 1
DILUPBiCGStab:  Solving for e.liquid, Initial residual = 1.799729544e-07, Final residual = 1.95887151e-12, No Iterations 1
Tf.gasAndLiquid: min = 111.5351785, mean = 111.5503432, max = 111.5654305
iDmdt.gasAndLiquid: min = -0.2429500007, mean = 0.0005042119213, max = 0.5141776498, integral = 1.020298305e-07
wDmdt.gasAndLiquid: min = 0, mean = 5.816401885e-05, max = 0.01049357261, integral = 1.175552626e-08
DILUPBiCGStab:  Solving for e.gas, Initial residual = 3.134521206e-06, Final residual = 1.355049076e-12, No Iterations 1
DILUPBiCGStab:  Solving for e.liquid, Initial residual = 7.625829591e-09, Final residual = 7.625829591e-09, No Iterations 0
DICPBiCGStab:  Solving for p_rgh, Initial residual = 2.546369188e-06, Final residual = 2.346024307e-07, No Iterations 4
DICPBiCGStab:  Solving for p_rgh, Initial residual = 9.404125336e-07, Final residual = 9.371177557e-10, No Iterations 61
smoothSolver:  Solving for k.gas, Initial residual = 0.0009829492273, Final residual = 6.151394384e-08, No Iterations 1
bounding k.gas, min: -5.159205147e-09 max: 0.0002549715995 average: 4.315003042e-06
smoothSolver:  Solving for k.liquid, Initial residual = 0.00155996277, Final residual = 4.848660966e-11, No Iterations 2
ExecutionTime = 181.58 s  ClockTime = 186 s

Courant Number mean: 0.004272440285 max: 0.05721428775
Max Ur Courant Number = 0.2497065465
deltaT = 0.001449275362
Time = 0.995652

PIMPLE: iteration 1
MULES: Solving for alpha.gas
MULES: Solving for alpha.gas
MULES: Solving for alpha.gas
alpha.gas volume fraction = 0.5083348364  Min(alpha1) = -1.222320994e-25  Max(alpha1) = 1
Constructing face momentum equations
Tf.gasAndLiquid: min = 111.5351854, mean = 111.5503432, max = 111.5654305
iDmdt.gasAndLiquid: min = -0.2436482008, mean = 0.0005039173894, max = 0.514178954, integral = 1.020221286e-07
wDmdt.gasAndLiquid: min = 0, mean = 5.81411336e-05, max = 0.01049361032, integral = 1.175090093e-08
DILUPBiCGStab:  Solving for e.gas, Initial residual = 0.001954689561, Final residual = 1.916571328e-09, No Iterations 1
DILUPBiCGStab:  Solving for e.liquid, Initial residual = 2.561352425e-05, Final residual = 9.174343043e-11, No Iterations 1
Tf.gasAndLiquid: min = 111.5351672, mean = 111.550361, max = 111.5654724
iDmdt.gasAndLiquid: min = -0.2427741933, mean = 0.0005044650199, max = 0.5145714042, integral = 1.020682677e-07
wDmdt.gasAndLiquid: min = 0, mean = 5.81293188e-05, max = 0.01049362874, integral = 1.174851304e-08
DILUPBiCGStab:  Solving for e.gas, Initial residual = 7.339312898e-06, Final residual = 5.544727803e-12, No Iterations 1
DILUPBiCGStab:  Solving for e.liquid, Initial residual = 2.926571711e-08, Final residual = 3.483836493e-13, No Iterations 1
DICPBiCGStab:  Solving for p_rgh, Initial residual = 8.668079584e-05, Final residual = 5.615141032e-06, No Iterations 21
DICPBiCGStab:  Solving for p_rgh, Initial residual = 7.851349238e-06, Final residual = 7.573064428e-09, No Iterations 64
PIMPLE: iteration 2
MULES: Solving for alpha.gas
MULES: Solving for alpha.gas
MULES: Solving for alpha.gas
alpha.gas volume fraction = 0.5083348374  Min(alpha1) = -2.759179195e-45  Max(alpha1) = 1
Constructing face momentum equations
Tf.gasAndLiquid: min = 111.5351591, mean = 111.5503698, max = 111.5654935
iDmdt.gasAndLiquid: min = -0.2426353248, mean = 0.0005045113228, max = 0.5146016484, integral = 1.0207136e-07
wDmdt.gasAndLiquid: min = 0, mean = 5.811755987e-05, max = 0.01049364785, integral = 1.174613644e-08
DILUPBiCGStab:  Solving for e.gas, Initial residual = 2.36332756e-05, Final residual = 7.775740701e-12, No Iterations 1
DILUPBiCGStab:  Solving for e.liquid, Initial residual = 1.784568185e-07, Final residual = 1.957456338e-12, No Iterations 1
Tf.gasAndLiquid: min = 111.5351509, mean = 111.5503744, max = 111.5655041
iDmdt.gasAndLiquid: min = -0.2427688917, mean = 0.0005042625174, max = 0.5146119851, integral = 1.020572372e-07
wDmdt.gasAndLiquid: min = 0, mean = 5.810593174e-05, max = 0.01049366691, integral = 1.174378628e-08
DILUPBiCGStab:  Solving for e.gas, Initial residual = 3.066488565e-06, Final residual = 1.348726031e-12, No Iterations 1
DILUPBiCGStab:  Solving for e.liquid, Initial residual = 7.621980649e-09, Final residual = 7.621980649e-09, No Iterations 0
DICPBiCGStab:  Solving for p_rgh, Initial residual = 2.54247303e-06, Final residual = 2.518624169e-07, No Iterations 4
DICPBiCGStab:  Solving for p_rgh, Initial residual = 9.480897348e-07, Final residual = 6.21976578e-09, No Iterations 61
smoothSolver:  Solving for k.gas, Initial residual = 0.0009942761698, Final residual = 6.19583402e-08, No Iterations 1
smoothSolver:  Solving for k.liquid, Initial residual = 0.001559530393, Final residual = 4.909152081e-11, No Iterations 2
ExecutionTime = 181.83 s  ClockTime = 186 s

Courant Number mean: 0.004285677722 max: 0.05742101801
Max Ur Courant Number = 0.2497100777
deltaT = 0.001449275362
Time = 0.997101

PIMPLE: iteration 1
MULES: Solving for alpha.gas
MULES: Solving for alpha.gas
MULES: Solving for alpha.gas
alpha.gas volume fraction = 0.5083348402  Min(alpha1) = -3.30254303e-45  Max(alpha1) = 1
Constructing face momentum equations
Tf.gasAndLiquid: min = 111.5351583, mean = 111.5503743, max = 111.5655041
iDmdt.gasAndLiquid: min = -0.2434652433, mean = 0.0005039589661, max = 0.5146080634, integral = 1.020482838e-07
wDmdt.gasAndLiquid: min = 0, mean = 5.808315519e-05, max = 0.01049370459, integral = 1.173918291e-08
DILUPBiCGStab:  Solving for e.gas, Initial residual = 0.001948580549, Final residual = 1.918448579e-09, No Iterations 1
DILUPBiCGStab:  Solving for e.liquid, Initial residual = 2.563191952e-05, Final residual = 9.269654774e-11, No Iterations 1
Tf.gasAndLiquid: min = 111.5351402, mean = 111.5503921, max = 111.5655461
iDmdt.gasAndLiquid: min = -0.2425896179, mean = 0.00050450825, max = 0.5149968916, integral = 1.020944225e-07
wDmdt.gasAndLiquid: min = 0, mean = 5.807139642e-05, max = 0.010493723, integral = 1.173680635e-08
DILUPBiCGStab:  Solving for e.gas, Initial residual = 7.32668706e-06, Final residual = 5.536007672e-12, No Iterations 1
DILUPBiCGStab:  Solving for e.liquid, Initial residual = 2.931080295e-08, Final residual = 3.500391597e-13, No Iterations 1
DICPBiCGStab:  Solving for p_rgh, Initial residual = 8.666874304e-05, Final residual = 6.008280223e-06, No Iterations 22
DICPBiCGStab:  Solving for p_rgh, Initial residual = 8.200764134e-06, Final residual = 3.886393939e-09, No Iterations 65
PIMPLE: iteration 2
MULES: Solving for alpha.gas
MULES: Solving for alpha.gas
MULES: Solving for alpha.gas
alpha.gas volume fraction = 0.5083348412  Min(alpha1) = -2.733918694e-30  Max(alpha1) = 1
Constructing face momentum equations
Tf.gasAndLiquid: min = 111.5351323, mean = 111.550401, max = 111.5655671
iDmdt.gasAndLiquid: min = -0.2424506666, mean = 0.0005045559933, max = 0.5150268821, integral = 1.020975916e-07
wDmdt.gasAndLiquid: min = 0, mean = 5.805969325e-05, max = 0.0104937421, integral = 1.173444102e-08
DILUPBiCGStab:  Solving for e.gas, Initial residual = 2.367076865e-05, Final residual = 7.810217173e-12, No Iterations 1
DILUPBiCGStab:  Solving for e.liquid, Initial residual = 1.781593553e-07, Final residual = 1.959251433e-12, No Iterations 1
Tf.gasAndLiquid: min = 111.535124, mean = 111.5504055, max = 111.5655777
iDmdt.gasAndLiquid: min = -0.2425839544, mean = 0.0005043093211, max = 0.5150380638, integral = 1.020840148e-07
wDmdt.gasAndLiquid: min = 0, mean = 5.804812018e-05, max = 0.01049376114, integral = 1.173210199e-08
DILUPBiCGStab:  Solving for e.gas, Initial residual = 3.069764258e-06, Final residual = 1.347207505e-12, No Iterations 1
DILUPBiCGStab:  Solving for e.liquid, Initial residual = 7.618150358e-09, Final residual = 7.618150358e-09, No Iterations 0
DICPBiCGStab:  Solving for p_rgh, Initial residual = 2.553923728e-06, Final residual = 2.365493865e-07, No Iterations 4
DICPBiCGStab:  Solving for p_rgh, Initial residual = 9.40936908e-07, Final residual = 8.953519635e-09, No Iterations 60
smoothSolver:  Solving for k.gas, Initial residual = 0.0009854290144, Final residual = 6.186100271e-08, No Iterations 1
smoothSolver:  Solving for k.liquid, Initial residual = 0.001559022548, Final residual = 4.97246981e-11, No Iterations 2
ExecutionTime = 182.08 s  ClockTime = 187 s

Courant Number mean: 0.004298927617 max: 0.05762796264
Max Ur Courant Number = 0.2497135945
deltaT = 0.001449275362
Time = 0.998551

PIMPLE: iteration 1
MULES: Solving for alpha.gas
MULES: Solving for alpha.gas
MULES: Solving for alpha.gas
alpha.gas volume fraction = 0.5083348442  Min(alpha1) = -3.826026042e-29  Max(alpha1) = 1
Constructing face momentum equations
Tf.gasAndLiquid: min = 111.5351319, mean = 111.5504055, max = 111.5655777
iDmdt.gasAndLiquid: min = -0.2432778779, mean = 0.0005039974285, max = 0.5150281348, integral = 1.020737804e-07
wDmdt.gasAndLiquid: min = 0, mean = 5.802545206e-05, max = 0.01049379879, integral = 1.172752054e-08
DILUPBiCGStab:  Solving for e.gas, Initial residual = 0.001941918981, Final residual = 1.920042042e-09, No Iterations 1
DILUPBiCGStab:  Solving for e.liquid, Initial residual = 2.564689821e-05, Final residual = 9.363603545e-11, No Iterations 1
Tf.gasAndLiquid: min = 111.5351139, mean = 111.5504232, max = 111.5656197
iDmdt.gasAndLiquid: min = -0.2423993101, mean = 0.0005045145162, max = 0.5154128902, integral = 1.021171637e-07
wDmdt.gasAndLiquid: min = 0, mean = 5.801374906e-05, max = 0.01049381717, integral = 1.172515525e-08
DILUPBiCGStab:  Solving for e.gas, Initial residual = 7.295035432e-06, Final residual = 5.52878249e-12, No Iterations 1
DILUPBiCGStab:  Solving for e.liquid, Initial residual = 2.937025906e-08, Final residual = 3.518604623e-13, No Iterations 1
DICPBiCGStab:  Solving for p_rgh, Initial residual = 8.661553592e-05, Final residual = 4.625566514e-06, No Iterations 22
DICPBiCGStab:  Solving for p_rgh, Initial residual = 6.733613888e-06, Final residual = 5.637489243e-09, No Iterations 71
PIMPLE: iteration 2
MULES: Solving for alpha.gas
MULES: Solving for alpha.gas
MULES: Solving for alpha.gas
alpha.gas volume fraction = 0.5083348452  Min(alpha1) = -5.440512743e-30  Max(alpha1) = 1
Constructing face momentum equations
Tf.gasAndLiquid: min = 111.5351061, mean = 111.5504321, max = 111.5656408
iDmdt.gasAndLiquid: min = -0.2422589827, mean = 0.0005045584928, max = 0.5154410113, integral = 1.02119954e-07
wDmdt.gasAndLiquid: min = 0, mean = 5.800210137e-05, max = 0.01049383626, integral = 1.172280113e-08
DILUPBiCGStab:  Solving for e.gas, Initial residual = 2.391846799e-05, Final residual = 7.971257478e-12, No Iterations 1
DILUPBiCGStab:  Solving for e.liquid, Initial residual = 1.785809348e-07, Final residual = 1.966072318e-12, No Iterations 1
Tf.gasAndLiquid: min = 111.5350977, mean = 111.5504366, max = 111.5656514
iDmdt.gasAndLiquid: min = -0.2423914371, mean = 0.0005042975173, max = 0.5154526611, integral = 1.021072436e-07
wDmdt.gasAndLiquid: min = 0, mean = 5.79905831e-05, max = 0.01049385528, integral = 1.172047317e-08
DILUPBiCGStab:  Solving for e.gas, Initial residual = 3.074268534e-06, Final residual = 1.348605718e-12, No Iterations 1
DILUPBiCGStab:  Solving for e.liquid, Initial residual = 7.614756412e-09, Final residual = 7.614756412e-09, No Iterations 0
DICPBiCGStab:  Solving for p_rgh, Initial residual = 2.546031842e-06, Final residual = 2.252834412e-07, No Iterations 4
DICPBiCGStab:  Solving for p_rgh, Initial residual = 9.380899507e-07, Final residual = 3.504856642e-09, No Iterations 60
smoothSolver:  Solving for k.gas, Initial residual = 0.000979406273, Final residual = 6.186737106e-08, No Iterations 1
bounding k.gas, min: -1.915505004e-08 max: 0.0002561987781 average: 4.35340801e-06
smoothSolver:  Solving for k.liquid, Initial residual = 0.001558593895, Final residual = 5.060187857e-11, No Iterations 2
ExecutionTime = 182.36 s  ClockTime = 187 s

Courant Number mean: 0.004312179028 max: 0.0578351838
Max Ur Courant Number = 0.2497171723
deltaT = 0.001449275362
Time = 1

PIMPLE: iteration 1
MULES: Solving for alpha.gas
MULES: Solving for alpha.gas
MULES: Solving for alpha.gas
alpha.gas volume fraction = 0.5083348481  Min(alpha1) = -2.721094726e-30  Max(alpha1) = 1
Constructing face momentum equations
Tf.gasAndLiquid: min = 111.5351061, mean = 111.5504366, max = 111.5656515
iDmdt.gasAndLiquid: min = -0.2430845117, mean = 0.000503975498, max = 0.5154392448, integral = 1.020959342e-07
wDmdt.gasAndLiquid: min = 0, mean = 5.796802288e-05, max = 0.0104938929, integral = 1.171591353e-08
DILUPBiCGStab:  Solving for e.gas, Initial residual = 0.001936060155, Final residual = 1.922355332e-09, No Iterations 1
DILUPBiCGStab:  Solving for e.liquid, Initial residual = 2.566144328e-05, Final residual = 9.457248621e-11, No Iterations 1
Tf.gasAndLiquid: min = 111.5350883, mean = 111.5504543, max = 111.5656933
iDmdt.gasAndLiquid: min = -0.2421986769, mean = 0.0005045262634, max = 0.5158213724, integral = 1.021415168e-07
wDmdt.gasAndLiquid: min = 0, mean = 5.795637479e-05, max = 0.01049391127, integral = 1.171355934e-08
DILUPBiCGStab:  Solving for e.gas, Initial residual = 7.311855026e-06, Final residual = 5.523763284e-12, No Iterations 1
DILUPBiCGStab:  Solving for e.liquid, Initial residual = 2.946665301e-08, Final residual = 3.543715263e-13, No Iterations 1
DICPBiCGStab:  Solving for p_rgh, Initial residual = 8.670724654e-05, Final residual = 5.306312182e-06, No Iterations 22
DICPBiCGStab:  Solving for p_rgh, Initial residual = 7.29290704e-06, Final residual = 8.900061878e-09, No Iterations 69
PIMPLE: iteration 2
MULES: Solving for alpha.gas
MULES: Solving for alpha.gas
MULES: Solving for alpha.gas
alpha.gas volume fraction = 0.5083348492  Min(alpha1) = -2.770867748e-33  Max(alpha1) = 1
Constructing face momentum equations
Tf.gasAndLiquid: min = 111.5350805, mean = 111.5504632, max = 111.5657143
iDmdt.gasAndLiquid: min = -0.2420569763, mean = 0.0005045734867, max = 0.5158478047, integral = 1.02144413e-07
wDmdt.gasAndLiquid: min = 0, mean = 5.794478167e-05, max = 0.01049393034, integral = 1.171121625e-08
DILUPBiCGStab:  Solving for e.gas, Initial residual = 2.358869828e-05, Final residual = 7.664409514e-12, No Iterations 1
DILUPBiCGStab:  Solving for e.liquid, Initial residual = 1.778054806e-07, Final residual = 1.968311702e-12, No Iterations 1
Tf.gasAndLiquid: min = 111.5350722, mean = 111.5504677, max = 111.565725
iDmdt.gasAndLiquid: min = -0.2421893009, mean = 0.000504297915, max = 0.51585905, integral = 1.021309785e-07
wDmdt.gasAndLiquid: min = 0, mean = 5.793331727e-05, max = 0.01049394935, integral = 1.170889918e-08
DILUPBiCGStab:  Solving for e.gas, Initial residual = 3.047399594e-06, Final residual = 1.346565395e-12, No Iterations 1
DILUPBiCGStab:  Solving for e.liquid, Initial residual = 7.607517932e-09, Final residual = 7.607517932e-09, No Iterations 0
DICPBiCGStab:  Solving for p_rgh, Initial residual = 2.55556349e-06, Final residual = 2.284245263e-07, No Iterations 4
DICPBiCGStab:  Solving for p_rgh, Initial residual = 9.364870831e-07, Final residual = 7.481309371e-09, No Iterations 61
smoothSolver:  Solving for k.gas, Initial residual = 0.0009873953484, Final residual = 6.229058078e-08, No Iterations 1
bounding k.gas, min: -1.385419401e-06 max: 0.0002566001394 average: 4.366447885e-06
smoothSolver:  Solving for k.liquid, Initial residual = 0.001563999881, Final residual = 5.09306253e-11, No Iterations 2
ExecutionTime = 182.73 s  ClockTime = 188 s

End

